&NAM_CONFIO  LCDF4=T, LLFIOUT=F, LLFIREAD=F /
&NAM_LUNIT2_SPA  CINIFILE = "INITIAL_D3",
                 CINIFILEPGD="PGD3.neste1",
                 YDOMAIN  = "PGD4.neste1",
                 YSPANBR = '00' /
&NAM_SPAWN_SURF LSPAWN_SURF = F/

