&NAM_CONFIO  LCDF4=T, LLFIOUT=T, LLFIREAD=F /
&NAM_REAL_PGD /
&NAM_DIMn_PRE NIMAX=1, NJMAX=1  /
&NAM_CONF_PRE LCARTESIAN=.TRUE., NVERB=10,
              CIDEAL='RSOU',  CZS='FLAT', LFORCING=.TRUE.,
              LBOUSS=.FALSE., CEQNSYS='DUR', LPACK=.FALSE.,
              JPHEXT=1,NHALO=1  /
&NAM_PERT_PRE /
&NAM_CONFn LUSERV=.TRUE.  /
&NAM_GRID_PRE XLAT0=15. / 
&NAM_GRIDH_PRE XDELTAX=40000., XDELTAY=40000. ,
               XHMAX=0./
&NAM_LUNITn CINIFILE='bomex_1D',CINIFILEPGD='PGD_BOMEX' /
&NAM_POST_PRE /
&NAM_DYNn_PRE  /
&NAM_LBCn_PRE / 
&NAM_VPROF_PRE CTYPELOC='IJGRID', NILOC=2, NJLOC=2 /
&NAM_GRn_PRE CSURF='EXTE'/
&NAM_VER_GRID  LTHINSHELL=.TRUE., NKMAX=75,
		YZGRID_TYPE='MANUAL'/
&NAM_CH_MNHCn_PRE /
&NAM_BLANK /
&NAM_PGD_SCHEMES CSEA='FLUX  ' /
&NAM_COVER XUNIF_COVER(1)=1. /
ZHAT
0.
40.
80.
120.
160.
200.
240.
280.
320.
360.
400.
440.
480.
520.
560.
600.
640.
680.
720.
760.
800.
840.
880.
920.
960.
1000.
1040.
1080.
1120.
1160.
1200.
1240.
1280.
1320.
1360.
1400.
1440.
1480.
1520.
1560.
1600.
1640.
1680.
1720.
1760.
1800.
1840.
1880.
1920.
1960.
2000.
2040.
2080.
2120.
2160.
2200.
2240.
2280.
2320.
2360.
2400.
2440.
2480.
2520.
2560.
2600.
2640.
2680.
2720.
2760.
2800.
2840.
2880.
2920.
2960.
3000.
RSOU
2001 9 27 0.
'ZUVTHDMR'
0
101500.
299.1 
0.0230
75
20    -8.75   0.00    
60    -8.75   0.00    
100   -8.75   0.00    
140   -8.75   0.00    
180   -8.75   0.00    
220   -8.75   0.00    
260   -8.75   0.00    
300   -8.75   0.00    
340   -8.75   0.00    
380   -8.75   0.00    
420   -8.75   0.00    
460   -8.75   0.00    
500   -8.75   0.00    
540   -8.75   0.00    
580   -8.75   0.00 
620   -8.75   0.00  
660   -8.75   0.00  
700   -8.75   0.00  
740   -8.68   0.00  
780   -8.61   0.00  
820   -8.53   0.00  
860   -8.46   0.00 
900   -8.39   0.00  
940   -8.32   0.00  
980   -8.24   0.00  
1020  -8.17   0.00  
1060  -8.10   0.00  
1100  -8.03   0.00  
1140  -7.95   0.00  
1180  -7.88   0.00  
1220  -7.81   0.00  
1260  -7.74   0.00  
1300  -7.67   0.00  
1340  -7.59   0.00  
1380  -7.52   0.00  
1420  -7.45   0.00 
1460  -7.38   0.00 
1500  -7.30   0.00 
1540  -7.23   0.00 
1580  -7.16   0.00 
1620  -7.09   0.00 
1660  -7.01   0.00 
1700  -6.94   0.00 
1740  -6.87   0.00 
1780  -6.80   0.00 
1820  -6.73   0.00
1860  -6.65   0.00
1900  -6.58   0.00
1940  -6.51   0.00
1980  -6.44   0.00
2020  -6.36   0.00
2060  -6.29   0.00
2100  -6.22   0.00
2140  -6.15   0.00
2180  -6.07   0.00
2220  -6.00   0.00
2260  -5.93   0.00
2300  -5.86   0.00
2340  -5.79   0.00
2380  -5.71   0.00
2420  -5.64   0.00
2460  -5.57   0.00
2500  -5.50   0.00
2540  -5.42   0.00
2580  -5.35   0.00
2620  -5.28   0.00
2660  -5.21   0.00
2700  -5.13   0.00
2740  -5.06   0.00
2780  -4.99   0.00
2820  -4.92   0.00
2860  -4.84   0.00
2900  -4.77   0.00
2940  -4.70   0.00
2980  -4.63   0.00
76
20    298.70  0.01726 
60    298.70  0.01721
100   298.70  0.01716
140   298.70  0.01710
180   298.70  0.01705
220   298.70  0.01698 
260   298.70  0.01693
300   298.70  0.01688
340   298.70  0.01682
380   298.70  0.01677
420   298.70  0.01670
460   298.70  0.01665
500   298.70  0.01660
540   298.78  0.01645
580   298.93  0.01621
620   299.09  0.01597
660   299.24  0.01572
700   299.39  0.01549
740   299.55  0.01525
780   299.70  0.01500
820   299.86  0.01476
860   300.01  0.01453
900   300.16  0.01428
940   300.32  0.01404
980   300.47  0.01381
1020  300.63  0.01356
1060  300.78  0.01333
1100  300.94  0.01309
1140  301.09  0.01284
1180  301.24  0.01261
1220  301.40  0.01237
1260  301.55  0.01213
1300  301.71  0.01189
1340  301.86  0.01165
1380  302.01  0.01141
1420  302.17  0.01117
1460  302.32  0.01094
1500  302.62  0.01056
1540  303.07  0.01005
1580  303.52  0.00954
1620  303.96  0.00903
1660  304.41  0.00852
1700  304.85  0.00801
1740  305.30  0.00751 
1780  305.75  0.00700
1820  306.19  0.00649
1860  306.64  0.00599
1900  307.08  0.00548
1940  307.53  0.00497
1980  307.98  0.00447
2020  308.27  0.00420
2060  308.42  0.00415
2100  308.56  0.00410
2140  308.71  0.00405
2180  308.85  0.00400
2220  309.00  0.00396
2260  309.14  0.00391
2300  309.29  0.00385
2340  309.43  0.00380
2380  309.57  0.00376
2420  309.72  0.00371
2460  309.86  0.00366
2500  310.01  0.00361
2540  310.15  0.00356
2580  310.30  0.00352
2620  310.44  0.00347
2660  310.59  0.00342
2700  310.73  0.00337
2740  310.88  0.00332
2780  311.02  0.00328
2820  311.17  0.00323
2860  311.31  0.00318
2900  311.46  0.00313
2940  311.60  0.00308
2980  311.74  0.00304
ZFRC
1
2001 09 27 0.
0
101500.
299.1 
0.0230
7
0    -10.0 .0  0 0 0.       -2.315e-5 -1.2e-8 0. 0.
300  -9.46 .0  0 0 -0.00130 -2.315e-5 -1.2e-8 0. 0.
500  -9.10 .0  0 0 -0.00217 -2.315e-5 0. 0. 0.
1500 -7.30 .0  0 0 -0.00650 -2.315e-5 0 0. 0.
2100 -6.22 .0  0 0 0.       -0.926e-5 0 0. 0.
2500 -5.50 .0  0 0 0.        0.       0 0. 0.
4000 -2.80 .0  0 0 0.        0.       0 0. 0.
