&NAM_CONFIO LCDF4=.TRUE.,
            LLFIOUT=.FALSE.,
            LLFIREAD=.FALSE. /

&NAM_CONF NHALO=0 /
&NAM_PGD1 YPGD1 = 'BIOMAIDO_CH_8km' /
&NAM_PGD2 YPGD2 = 'BIOMAIDO_CH_2km', IDAD = 1 /

&NAM_NEST_PGD YNEST = 'ne' /

