&NAM_CONFIO    LCDF4=T /

&NAM_CONF      NMODEL = 1,
               CSPLIT='BSPLITTING' /

&NAM_CONFZ     NZ_VERB = 2,
               NZ_PROC = 0,
               NB_PROCIO_W = 1,
               MPI_BUFFER_SIZE = 1000 /

&NAM_DIMn_PRE  NIMAX=1200,
               NJMAX=1200 /

&NAM_LUNITn    CINIFILE='INIFILE',
               CINIFILEPGD='INIFILE_PGD' /

&NAM_DYNn_PRE  CPRESOPT ='ZRESI',
               NITR=16,
               LRES =.TRUE.,
               XRES = 1.E-05 /

&NAM_LBCn_PRE  CLBCX =2*'OPEN',
               CLBCY =2*'OPEN' /

&NAM_GRIDH_PRE XDELTAX=1.0E+0,
               XDELTAY=1.0E+0,
               XHMAX = 0.,
               XAX = 0. /

&NAM_VER_GRID  NKMAX=150,
               YZGRID_TYPE='FUNCTN',
               ZZMAX_STRGRD=0.E+0,
               ZSTRGRD=0.E+0,
               ZDZTOP=1.E+0,
               ZSTRTOP=0E+0,
               ZDZGRD=1.E+0/

&NAM_GRID_PRE  XLAT0=40.13,
               XLON0=-113.11,
               XBETA=0.,
               XRPK=0.,
               XLATORI=40.13,
               XLONORI=-113.11  /

&NAM_CONF_PRE  CIDEAL = 'CSTN',
               CEQNSYS='DUR',
               NVERB=10,
               LCARTESIAN=.TRUE.,
               CZS='FLAT',
               LPERTURB = .TRUE.,
               NHALO=4,
               JPHEXT = 1 /

&NAM_VPROF_PRE LGEOSBAL=.FALSE.,	
               CFUNU='ZZZ',             
               CFUNV='ZZZ',             
               CTYPELOC='IJGRID',       
               NILOC=2,			
               NJLOC=2 /

&NAM_PERT_PRE CPERT_KIND="WW",
              XAMPLITH = 0.,
              XAMPLIRV = 0.,
              XAMPLIUV = 0.0,
              XAMPLIWH = 0.5,
              NKWH = 20,
              LSET_RHU=FALSE / 

&NAM_CONFn LUSERV = .TRUE. /

&NAM_GRn_PRE CSURF='EXTE' /

&NAM_PGD_SCHEMES    CNATURE = 'FLUX'    , 
                    CSEA    = 'NONE'    , 
                    CTOWN   = 'NONE'    , 
                    CWATER  = 'NONE' /

&NAM_FRAC           LECOCLIMAP = F,
                    XUNIF_SEA    = 0.,
                    XUNIF_WATER  = 0.,
                    XUNIF_TOWN   = 0.,
                    XUNIF_NATURE = 1. /

&NAM_IDEAL_FLUX CUSTARTYPE='Z0',
                XZ0=0.045,
                XALB=0.25,
                XEMIS=1.,
                NFORCT = 2,
                XTIMET(1) = 0.,
                XTIMET(2) = 87000.,
                XTSRAD(1) = 317.5,
                XTSRAD(2) = 317.5,
                NFORCF = 2,
                XTIMEF(1) = 0.,
                XTIMEF(2) = 87000.,
                XSFTH(1) = 0.,
                XSFTH(2) = 0.,
                CSFTQ='kg/m2/s',
                XSFTQ(1)=0.,
                XSFTQ(2)=0.,
                XSFCO2(1) = 0.,
                XSFCO2(2) = 0. /


&NAM_IBM_LSF LIBM_LSF=.TRUE.,
             CIBM_TYPE='GENE',
             NIBM_SMOOTH=10,
             XIBM_SMOOTH=1. /

CSTN
2000 01 01 0.
151
317.5
85000.
0.000 1.000 2.000 3.000 4.000 5.000 6.000 7.000 8.000 9.000 10.000 11.000 12.000 13.000 14.000 15.000 16.000 17.000 18.000 19.000 20.000 21.000 22.000 23.000 24.000 25.000 26.000 27.000 28.000 29.000 30.000 31.000 32.000 33.000 34.000 35.000 36.000 37.000 38.000 39.000 40.000 41.000 42.000 43.000 44.000 45.000 46.000 47.000 48.000 49.000 50.000 51.000 52.000 53.000 54.000 55.000 56.000 57.000 58.000 59.000 60.000 61.000 62.000 63.000 64.000 65.000 66.000 67.000 68.000 69.000 70.000 71.000 72.000 73.000 74.000 75.000 76.000 77.000 78.000 79.000 80.000 81.000 82.000 83.000 84.000 85.000 86.000 87.000 88.000 89.000 90.000 91.000 92.000 93.000 94.000 95.000 96.000 97.000 98.000 99.000 100.000 101.000 102.000 103.000 104.000 105.000 106.000 107.000 108.000 109.000 110.000 111.000 112.000 113.000 114.000 115.000 116.000 117.000 118.000 119.000 120.000 121.000 122.000 123.000 124.000 125.000 126.000 127.000 128.000 129.000 130.000 131.000 132.000 133.000 134.000 135.000 136.000 137.000 138.000 139.000 140.000 141.000 142.000 143.000 144.000 145.000 146.000 147.000 148.000 149.000 150.000
0.000 2.992 3.630 4.009 4.279 4.489 4.661 4.807 4.933 5.045 5.144 5.235 5.317 5.393 5.463 5.529 5.590 5.647 5.702 5.753 5.802 5.848 5.892 5.934 5.975 6.013 6.051 6.086 6.121 6.154 6.187 6.218 6.248 6.277 6.305 6.333 6.360 6.386 6.411 6.436 6.460 6.483 6.506 6.529 6.550 6.572 6.593 6.613 6.633 6.653 6.672 6.691 6.709 6.727 6.745 6.762 6.780 6.796 6.813 6.829 6.845 6.861 6.876 6.892 6.906 6.921 6.936 6.950 6.964 6.978 6.992 7.005 7.018 7.032 7.045 7.057 7.070 7.082 7.095 7.107 7.119 7.130 7.142 7.154 7.165 7.176 7.187 7.198 7.209 7.220 7.231 7.241 7.251 7.262 7.272 7.282 7.292 7.302 7.312 7.321 7.331 7.340 7.350 7.359 7.368 7.377 7.386 7.395 7.404 7.413 7.421 7.430 7.439 7.447 7.455 7.464 7.472 7.480 7.488 7.496 7.504 7.512 7.520 7.528 7.535 7.543 7.551 7.558 7.566 7.573 7.580 7.588 7.595 7.602 7.609 7.616 7.623 7.630 7.637 7.644 7.651 7.657 7.664 7.671 7.678 7.684 7.691 7.697 7.704 7.710 7.716
0.000 0.000 0.000 0.000 0.000 0.000 0.000 0.000 0.000 0.000 0.000 0.000 0.000 0.000 0.000 0.000 0.000 0.000 0.000 0.000 0.000 0.000 0.000 0.000 0.000 0.000 0.000 0.000 0.000 0.000 0.000 0.000 0.000 0.000 0.000 0.000 0.000 0.000 0.000 0.000 0.000 0.000 0.000 0.000 0.000 0.000 0.000 0.000 0.000 0.000 0.000 0.000 0.000 0.000 0.000 0.000 0.000 0.000 0.000 0.000 0.000 0.000 0.000 0.000 0.000 0.000 0.000 0.000 0.000 0.000 0.000 0.000 0.000 0.000 0.000 0.000 0.000 0.000 0.000 0.000 0.000 0.000 0.000 0.000 0.000 0.000 0.000 0.000 0.000 0.000 0.000 0.000 0.000 0.000 0.000 0.000 0.000 0.000 0.000 0.000 0.000 0.000 0.000 0.000 0.000 0.000 0.000 0.000 0.000 0.000 0.000 0.000 0.000 0.000 0.000 0.000 0.000 0.000 0.000 0.000 0.000 0.000 0.000 0.000 0.000 0.000 0.000 0.000 0.000 0.000 0.000 0.000 0.000 0.000 0.000 0.000 0.000 0.000 0.000 0.000 0.000 0.000 0.000 0.000 0.000 0.000 0.000 0.000 0.000 0.000 0.000
0.000 0.000 0.000 0.000 0.000 0.000 0.000 0.000 0.000 0.000 0.000 0.000 0.000 0.000 0.000 0.000 0.000 0.000 0.000 0.000 0.000 0.000 0.000 0.000 0.000 0.000 0.000 0.000 0.000 0.000 0.000 0.000 0.000 0.000 0.000 0.000 0.000 0.000 0.000 0.000 0.000 0.000 0.000 0.000 0.000 0.000 0.000 0.000 0.000 0.000 0.000 0.000 0.000 0.000 0.000 0.000 0.000 0.000 0.000 0.000 0.000 0.000 0.000 0.000 0.000 0.000 0.000 0.000 0.000 0.000 0.000 0.000 0.000 0.000 0.000 0.000 0.000 0.000 0.000 0.000 0.000 0.000 0.000 0.000 0.000 0.000 0.000 0.000 0.000 0.000 0.000 0.000 0.000 0.000 0.000 0.000 0.000 0.000 0.000 0.000 0.000 0.000 0.000 0.000 0.000 0.000 0.000 0.000 0.000 0.000 0.000 0.000 0.000 0.000 0.000 0.000 0.000 0.000 0.000 0.000 0.000 0.000 0.000 0.000 0.000 0.000 0.000 0.000 0.000 0.000 0.000 0.000 0.000 0.000 0.000 0.000 0.000 0.000 0.000 0.000 0.000 0.000 0.000 0.000 0.000 0.000 0.000 0.000 0.000 0.000 0.000
0.000 0.000 0.000 0.000 0.000 0.000 0.000 0.000 0.000 0.000 0.000 0.000 0.000 0.000 0.000 0.000 0.000 0.000 0.000 0.000 0.000 0.000 0.000 0.000 0.000 0.000 0.000 0.000 0.000 0.000 0.000 0.000 0.000 0.000 0.000 0.000 0.000 0.000 0.000 0.000 0.000 0.000 0.000 0.000 0.000 0.000 0.000 0.000 0.000 0.000 0.000 0.000 0.000 0.000 0.000 0.000 0.000 0.000 0.000 0.000 0.000 0.000 0.000 0.000 0.000 0.000 0.000 0.000 0.000 0.000 0.000 0.000 0.000 0.000 0.000 0.000 0.000 0.000 0.000 0.000 0.000 0.000 0.000 0.000 0.000 0.000 0.000 0.000 0.000 0.000 0.000 0.000 0.000 0.000 0.000 0.000 0.000 0.000 0.000 0.000 0.000 0.000 0.000 0.000 0.000 0.000 0.000 0.000 0.000 0.000 0.000 0.000 0.000 0.000 0.000 0.000 0.000 0.000 0.000 0.000 0.000 0.000 0.000 0.000 0.000 0.000 0.000 0.000 0.000 0.000 0.000 0.000 0.000 0.000 0.000 0.000 0.000 0.000 0.000 0.000 0.000 0.000 0.000 0.000 0.000 0.000 0.000 0.000 0.000 0.000 0.000
