NAM_REAL_PGD /
&NAM_CONFIO  LCDF4=T, LLFIOUT=F, LLFIREAD=F /
&NAM_CONFZ NB_PROCIO_W=1, MPI_BUFFER_SIZE=1800, NZ_VERB=5 
 ! NZ_VERB=5 , NZ_PROC=0 , NB_PROCIO_R=1 , NB_PROCIO_W=8
/
&NAM_DIMn_PRE NIMAX=600 NJMAX=600 /
&NAM_CONF_PRE LCARTESIAN=.TRUE.,
	      CIDEAL='RSOU' CZS='FLAT', 
              LBOUSS=.FALSE.,
              LPERTURB=.TRUE., 
	      CEQNSYS='DUR',
              LSHIFT=.TRUE.,
	      NVERB=5, 
              !JPHEXT = 3 , NHALO = 3 
              /
&NAM_PERT_PRE CPERT_KIND= 'TH', 
               XAMPLITH= 2.0,
               XCENTERZ=1400.0,
               XRADX=10000.0, 
               XRADY=10000.0, 
               XRADZ=1400.0,
               LSET_RHU= .TRUE.,
               XAMPLIUV=0.0, 
               XAMPLIWH=0.0/
&NAM_CONFn LUSERV=.TRUE.,
           LUSERC=.FALSE.,
           LUSERR=.FALSE., 
           LUSERI=.FALSE.,
           LUSERS=.FALSE.,
           LUSERG=.FALSE.,
           LUSERH=.FALSE. /
&NAM_GRID_PRE XLAT0=45,
              XLON0=0 /
&NAM_GRIDH_PRE XDELTAX=500.,
               XDELTAY=500.  /
&NAM_LUNITn CINIFILE='SCELWK500m' /
&NAM_DYNn_PRE 
  CPRESOPT= 'ZRESI' ,
  NITR=12 XRELAX=1. /
&NAM_LBCn_PRE CLBCX= 2*'OPEN' CLBCY= 2*'OPEN' /
&NAM_VPROF_PRE CFUNU='ZZZ', 
               CFUNV='ZZZ',
               LGEOSBAL=.FALSE.,
	       CTYPELOC='XYHATM',
               XXHATLOC=25000,
               XYHATLOC=60000 /
             
&NAM_VER_GRID  LTHINSHELL=.TRUE.,
               NKMAX=89,
               YZGRID_TYPE='MANUAL' /

ZHAT
0
10.8812
24.3805
41.3253
61.6477
85.2796
112.153
142.2
175.352
211.541
250.7
292.759
337.652
385.31
435.665
488.699
544.492
603.163
664.815
729.539
797.409
868.486
942.816
1020.43
1101.34
1185.56
1273.06
1363.83
1457.88
1555.34
1656.37
1761.12
1869.71
1982.25
2098.8
2219.43
2344.16
2473.02
2605.98
2743
2884.05
3029.02
3177.84
3330.41
3486.68
3646.61
3810.19
3977.45
4148.41
4323.13
4501.72
4684.28
4870.95
5061.89
5257.29
5457.39
5662.56
5873.23
6089.92
6313.18
6543.65
6782.02
7029.03
7285.5
7552.29
7830.33
8120.18
8421.65
8734.43
9058.58
9394.56
9743.22
10105.8
10483.9
10879.6
11296.2
11738.3
12210.5
12718.4
13268.3
13867.4
14523.3
15247
16056.3
16976.4
18039.4
19283.3
20752.8
22500.1
25000.0
RSOU
2007 01 31 36000.
'STANDARD'
0.
100000.
300.00
291.97
158
99542.65 181.432 0.400125
98123.73 183.122 1.65245
96720.13 185.159 2.89171
95331.98 187.503 4.13541
93959.18 189.743 5.37756
92601.75 191.974 6.60367
91259.60 194.214 7.81939
89932.63 196.486 9.02087
88620.77 198.719 10.2206
87323.98 200.98 11.3954
86042.19 203.235 12.5476
84775.55 205.48 13.6917
83523.91 207.724 14.8103
82287.20 209.968 15.8952
81065.29 212.22 16.9739
79858.01 214.484 18.0156
78665.23 216.713 19.0361
77486.88 218.977 20.0155
76322.78 221.212 20.9762
75172.80 223.483 21.8997
74036.83 225.729 22.7919
72914.76 227.966 23.642
71806.41 230.224 24.4614
70711.71 232.467 25.2457
69630.50 234.714 25.9839
68562.70 236.959 26.6856
67508.12 239.234 27.349
66466.67 241.465 27.9674
65438.23 243.713 28.5415
64422.66 245.965 29.0704
63419.86 248.217 29.5608
62429.68 250.466 29.9966
61452.02 252.716 30.3925
60486.76 254.974 30.7411
59533.76 257.213 31.0398
58592.91 259.469 31.2971
57664.11 261.713 31.4989
56747.23 263.962 31.6556
55842.14 266.227 31.7588
54948.74 268.469 31.8214
54066.89 270 31.83
53196.52 270 31.83
52337.47 270 31.83
51489.64 270 31.83
50652.94 270 31.83
49827.22 270 31.83
49012.40 270 31.83
48208.36 270 31.83
47414.99 270 31.83
46632.18 270 31.83
45859.81 270 31.83
45097.78 270 31.83
44345.99 270 31.83
43604.33 270 31.83
42872.69 270 31.83
42150.98 270 31.83
41439.08 270 31.83
40736.89 270 31.83
40044.34 270 31.83
39361.27 270 31.83
38687.61 270 31.83
38023.27 270 31.83
37368.13 270 31.83
36722.11 270 31.83
36085.09 270 31.83
35456.99 270 31.83
34837.72 270 31.83
34227.16 270 31.83
33625.23 270 31.83
33031.83 270 31.83
32446.88 270 31.83
31870.28 270 31.83
31301.93 270 31.83
30741.74 270 31.83
30189.63 270 31.83
29645.51 270 31.83
29109.28 270 31.83
28580.86 270 31.83
28060.15 270 31.83
27547.08 270 31.83
27041.55 270 31.83
26543.48 270 31.83
26052.78 270 31.83
25569.38 270 31.83
25093.18 270 31.83
24624.11 270 31.83
24162.07 270 31.83
23707.00 270 31.83
23258.81 270 31.83
22817.41 270 31.83
22382.74 270 31.83
21954.71 270 31.83
21533.24 270 31.83
21118.25 270 31.83
20709.67 270 31.83
20307.43 270 31.83
19911.52 270 31.83
19523.01 270 31.83
18768.68 270 31.83
18402.58 270 31.83
18043.65 270 31.83
17691.76 270 31.83
17346.76 270 31.83
17008.53 270 31.83
16676.93 270 31.83
16351.83 270 31.83
16033.10 270 31.83
15720.61 270 31.83
15414.25 270 31.83
15113.88 270 31.83
14819.38 270 31.83
14530.65 270 31.83
14247.59 270 31.83
13970.08 270 31.83
13698.01 270 31.83
13431.26 270 31.83
13169.74 270 31.83
12913.33 270 31.83
12661.96 270 31.83
12415.50 270 31.83
12173.86 270 31.83
11936.96 270 31.83
11704.69 270 31.83
11476.96 270 31.83
11253.70 270 31.83
11034.80 270 31.83
10820.19 270 31.83
10609.77 270 31.83
10403.47 270 31.83
10201.21 270 31.83
10002.90 270 31.83
9808.47 270 31.83
9617.85 270 31.83
9430.95 270 31.83
9247.70 270 31.83
9068.03 270 31.83
8891.88 270 31.83
8719.17 270 31.83
8549.84 270 31.83
8383.82 270 31.83
8221.04 270 31.83
8061.45 270 31.83
7904.96 270 31.83
7751.54 270 31.83
7601.12 270 31.83
7453.63 270 31.83
7309.02 270 31.83
7167.24 270 31.83
7028.23 270 31.83
6891.93 270 31.83
6758.29 270 31.83
6627.26 270 31.83
6498.79 270 31.83
6372.83 270 31.83
6249.32 270 31.83
6128.22 270 31.83
6009.49 270 31.83
5893.07 270 31.83
159
99542.65 299.64 291.91
98123.73 298.58 291.70
96720.13 297.56 291.50
95331.98 296.57 291.29
93959.18 295.59 291.08
92601.75 294.62 290.87
91259.60 293.67 290.66
89932.63 292.72 290.45
88620.77 291.79 290.23
87323.98 290.86 290.02
86042.19 289.94 289.19
84775.55 289.02 288.19
83523.91 288.11 287.19
82287.20 287.21 286.20
81065.29 286.31 285.21
79858.01 285.41 284.22
78665.23 284.52 283.24
77486.88 283.64 282.26
76322.78 282.76 281.28
75172.80 281.88 280.31
74036.83 281.00 279.34
72914.76 280.13 278.37
71806.41 279.26 277.40
70711.71 278.39 276.44
69630.50 277.52 275.47
68562.70 276.66 274.51
67508.12 275.80 273.55
66466.67 274.94 272.59
65438.23 274.08 271.64
64422.66 273.23 270.68
63419.86 272.38 269.73
62429.68 271.52 268.77
61452.02 270.67 267.82
60486.76 269.82 266.87
59533.76 268.97 265.92
58592.91 268.13 264.97
57664.11 267.28 264.02
56747.23 266.44 263.08
55842.14 265.59 262.13
54948.74 264.75 261.18
54066.89 263.91 260.23
53196.52 263.06 259.29
52337.47 262.22 258.34
51489.64 261.38 257.40
50652.94 260.54 256.45
49827.22 259.70 255.51
49012.40 258.86 254.56
48208.36 258.02 253.62
47414.99 257.18 252.67
46632.18 256.34 251.72
45859.81 255.51 250.78
45097.78 254.67 249.83
44345.99 253.83 248.89
43604.33 252.99 247.94
42872.69 252.15 246.99
42150.98 251.31 246.05
41439.08 250.48 245.10
40736.89 249.64 244.15
40044.34 248.80 243.20
39361.27 247.96 242.25
38687.61 247.12 241.30
38023.27 246.28 240.35
37368.13 245.44 239.40
36722.11 244.60 238.44
36085.09 243.76 237.49
35456.99 242.92 236.53
34837.72 242.08 235.58
34227.16 241.23 234.62
33625.23 240.39 233.66
33031.83 239.55 232.70
32446.88 238.71 231.74
31870.28 237.86 230.77
31301.93 237.02 229.81
30741.74 236.17 228.84
30189.63 235.33 227.87
29645.51 234.48 226.90
29109.28 233.63 225.93
28580.86 232.78 224.95
28060.15 231.93 223.98
27547.08 231.09 223.00
27041.55 230.23 222.01
26543.48 229.38 221.03
26052.78 228.53 220.04
25569.38 227.68 219.05
25093.18 226.83 218.06
24624.11 225.97 217.06
24162.07 225.12 216.06
23707.00 224.26 215.06
23258.81 223.40 214.05
22817.41 222.54 213.04
22382.74 221.68 212.02
21954.71 220.82 211.00
21533.24 219.96 209.97
21118.25 219.10 208.94
20709.67 218.24 207.90
20307.43 217.37 206.86
19911.52 216.79 206.15
19523.01 216.81 206.17
18768.68 216.86 206.21
18402.58 216.88 206.23
18043.65 216.90 206.25
17691.76 216.93 206.27
17346.76 216.95 206.29
17008.53 216.97 206.31
16676.93 216.99 206.33
16351.83 217.02 206.35
16033.10 217.04 206.37
15720.61 217.06 206.39
15414.25 217.09 206.41
15113.88 217.11 206.43
14819.38 217.13 206.45
14530.65 217.16 206.47
14247.59 217.18 206.49
13970.08 217.20 206.52
13698.01 217.23 206.54
13431.26 217.25 206.56
13169.74 217.28 206.58
12913.33 217.30 206.60
12661.96 217.33 206.62
12415.50 217.35 206.65
12173.86 217.38 206.67
11936.96 217.40 206.69
11704.69 217.43 206.71
11476.96 217.45 206.74
11253.70 217.48 206.76
11034.80 217.50 206.78
10820.19 217.53 206.80
10609.77 217.55 206.83
10403.47 217.58 206.85
10201.21 217.61 206.87
10002.90 217.63 206.90
9808.47 217.66 206.92
9617.85 217.69 206.95
9430.95 217.71 206.97
9247.70 217.74 206.99
9068.03 217.77 207.02
8891.88 217.80 207.04
8719.17 217.82 207.07
8549.84 217.85 207.09
8383.82 217.88 207.12
8221.04 217.91 207.14
8061.45 217.93 207.17
7904.96 217.96 207.19
7751.54 217.99 207.22
7601.12 218.02 207.24
7453.63 218.05 207.27
7309.02 218.08 207.29
7167.24 218.11 207.32
7028.23 218.14 207.34
6891.93 218.17 207.37
6758.29 218.19 207.40
6627.26 218.22 207.42
6498.79 218.25 207.45
6372.83 218.28 207.48
6249.32 218.31 207.50
6128.22 218.35 207.53
6009.49 218.38 207.56
5893.07 218.41 207.59
