&NAM_CONFIO  LCDF4=T, LLFIOUT=T, LLFIREAD=F /
&NAM_PGD1 YPGD1= 'PGD_AZF_2.5km' /       
&NAM_PGD2 YPGD2= 'PGD_AZF_500m', IDAD = 1 /
&NAM_PGD3 /
&NAM_PGD4 /
&NAM_PGD5 /
&NAM_PGD6 /
&NAM_PGD7 /
&NAM_PGD8 /
&NAM_NEST_PGD YNEST= 'ne' /
&NAM_CONF_NEST JPHEXT=1,NHALO_MNH=1 / 
