&NAM_CONFIO  LCDF4=T, LLFIOUT=T, LLFIREAD=F /
&NAM_GRID2_SPA GBAL_ONLY=.FALSE./
&NAM_LUNIT2_SPA CINIFILE='CPL_J1_20010921.09',
                CINIFILEPGD='PGD_AZF_2.5km.nestne'
                YDOMAIN='PGD_AZF_500m.nestne',           
                YSPAFILE='CPL_J1_20010921.09.spa2' /
&NAM_SPAWN_SURF LSPAWN_SURF=T /
&NAM_BLANK /
