&NAM_CONFIO LCDF4=T LLFIOUT=F LLFIREAD=F /
&NAM_FILE_NAMES HATMFILE ='ecmwf.OD.20050204.12',
                HATMFILETYPE='GRIBEX',
                HPGDFILE ='TROCCINOX_PGD30km' ,
                CINIFILE='TROC_050204.12' /
&NAM_REAL_CONF NVERB=5, CEQNSYS='DUR',LCOUPLING=T /
&NAM_VER_GRID NKMAX=70, YZGRID_TYPE='FUNCTN',
       ZDZGRD=40., ZDZTOP=600., ZZMAX_STRGRD=600.,
       ZSTRGRD=7., ZSTRTOP=8. /
