&NAM_CONFIO  LCDF4=T, LLFIOUT=F, LLFIREAD=F /
&NAM_FILE_NAMES HATMFILE ='INITIAL_D3.spa00' , HATMFILETYPE='MESONH',
                HPGDFILE ='PGD4.neste1' , CINIFILE='INITIAL_D4' /
&NAM_REAL_CONF NVERB=5 /
&NAM_VER_GRID /
&NAM_PREP_SURF_ATM CFILE = 'INITIAL_D3', CFILEPGD = 'PGD3.neste1', CFILETYPE = 'MESONH',  NHALO_PREP=10/
&NAM_REAL_CONF      NHALO=1, JPHEXT=1 /
