&NAM_CONFIO  LCDF4=T, LLFIOUT=F, LLFIREAD=F /
&NAM_CONF_NEST 
    !JPHEXT =3 , NHALO_MNH = 3 
    /
&NAM_PGD1 YPGD1 = '16JAN98_36km' /
&NAM_PGD2 YPGD2 = '16JAN98_9km', IDAD = 1 /
&NAM_PGD3 YPGD3 = '16JAN98_4500', IDAD = 2 /
&NAM_PGD4 YPGD4 = '16JAN98_2250', IDAD = 3 /
&NAM_NEST_PGD YNEST = 'e1' /

