&NAM_CONFIO  LCDF4=T, LLFIOUT=F, LLFIREAD=F /
&NAM_PGDFILE CPGDFILE='PGD3', NHALO=0 /
&NAM_PGD_GRID YINIFILE='PGD2' YINIFILETYPE='MESONH' /
&NAM_INIFILE_CONF_PROJ IXOR=           5 , IYOR=           5 , IXSIZE=          20 , IYSIZE=          20 , IDXRATIO=           1 , IDYRATIO=           1  /
&NAM_COVER     YCOVER='ECOCLIMAP_v2.0', YCOVERFILETYPE='DIRECT' /
&NAM_ZS        YZS='srtm_europe',    YZSFILETYPE='DIRECT' /
&NAM_ISBA      YCLAY='CLAY_HWSD_MOY', YCLAYFILETYPE='DIRECT' ,
               YSAND='SAND_HWSD_MOY', YSANDFILETYPE='DIRECT' /
