&NAM_CONFIO  LCDF4=T, LLFIOUT=T, LLFIREAD=F /
&NAM_CONF_NEST 
    !JPHEXT =3 , NHALO_MNH = 3 
    /
&NAM_PGD1 YPGD1 = 'Arome_LR' /
&NAM_PGD2 YPGD2 = 'Arome_HR', IDAD = 1 /
&NAM_NEST_PGD YNEST = 'e1' /

