&NAM_CONFIO  LCDF4=T, LLFIOUT=F, LLFIREAD=F /
&NAM_PGDFILE CPGDFILE='PGD2', NHALO=2 /
&NAM_PGD_GRID YINIFILE='PGD1' YINIFILETYPE='MESONH' /
&NAM_INIFILE_CONF_PROJ IXOR=           9 , IYOR=           9 , IXSIZE=          10 , IYSIZE=          10 , IDXRATIO=           3 , IDYRATIO=           3  /
&NAM_COVER     YCOVER='ECOCLIMAP_v2.0', YCOVERFILETYPE='DIRECT' /
&NAM_ZS        YZS='srtm_europe',    YZSFILETYPE='DIRECT' /
&NAM_ISBA      YCLAY='CLAY_HWSD_MOY', YCLAYFILETYPE='DIRECT' ,
               YSAND='SAND_HWSD_MOY', YSANDFILETYPE='DIRECT' /
