&NAM_CONFIO  LCDF4=T, LLFIOUT=T, LLFIREAD=F /
&NAM_DIMn_PRE NIMAX=1, NJMAX=1 /
&NAM_VER_GRID NKMAX=70 ZDZGRD=6., ZDZTOP=1000.,
              ZZMAX_STRGRD=200. , ZSTRGRD=0. , ZSTRTOP= 15.
              LSLEVE=.TRUE. /
&NAM_CONF_PRE LCARTESIAN=.TRUE., LBOUSS=.FALSE., NVERB=5,
              CEQNSYS='DUR',CIDEAL='RSOU', CZS='FLAT',LSHIFT=F,
              LFORCING=T, 
              JPHEXT = 3 , NHALO = 3 
              /
&NAM_CONFn LUSERV=.TRUE. /
&NAM_DYNn_PRE CPRESOPT ='CRESI' NITR=40 /
&NAM_GRID_PRE XLAT0=45.12 /
&NAM_GRIDH_PRE XHMAX=0./
&NAM_LUNITn CINIFILE='CLB_2302_USPC_12',
            CINIFILEPGD = 'CLB_PGD'/
&NAM_LBCn_PRE CLBCX= 2*'CYCL', CLBCY= 2*'CYCL' /
&NAM_VPROF_PRE CTYPELOC='IJGRID', NILOC=2, NJLOC=2,
               CFUNU='ZZZ', CFUNV='ZZZ',
               LGEOSBAL=.FALSE. /
&NAM_BLOWSNOW LBLOWSNOW=.TRUE. /
&NAM_GRn_PRE CSURF ='EXTE' /
&NAM_PGD_SCHEMES CNATURE='ISBA' /
&NAM_COVER XUNIF_COVER(85) =1./
&NAM_ISBA CISBA='DIF' XUNIF_CLAY=0.3, XUNIF_SAND=0.3 /
&NAM_PREP_ISBA XTG_SURF = 265., XTG_ROOT = 265., XTG_DEEP=265.,
         XHUG_SURF = 0. , XHUG_ROOT = 0. , XHUG_DEEP = 0., 
        LISBA_CANOPY=T /
&NAM_PREP_ISBA_SNOW CSNOW='CRO',
                    NSNOW_LAYER=20,
                    LSNOW_FRAC_TOT= .TRUE. 
                    LSNOW_IDEAL=.FALSE.
                    XWSNOW(1)=50,
                    XRSNOW(1)=150.,
                    XTSNOW(1)=265.15, 
	            XSG1SNOW(1)=-22., 
                    XSG2SNOW(1)=88., 
                    XHISTSNOW(1)=0.,
                    XAGESNOW(1)=10/
RSOU
2011 2 23 0
'ZUVTHDMR'
0.15
73195
288.8
0.0017
19
3 11.4193741503731 0
5.5 12.1083335517099 0
10 12.7878601853643 0
18 13.4559631853510 0
30 14.0365890349778 0
55 14.7255484363146 0
75 15.078083548854 0
100 15.4050750699690 0
150 15.8659437342183 0
225 16.3268123984676 0
375 16.9074382480944 0
500 17.2344297692094 0
750 17.2344297692094 0
1000 17.2344297692094 0
1500 17.2344297692094 0
2000 17.2344297692094 0
3000 17.2344297692094 0
5000 17.2344297692094 0
7000 17.2344297692094 0
19
3 288.812807979306 0.0017175125903589
5.5 288.825307979306 0.00158368324675641
10 288.847807979306 0.00145106626716383
18 288.887807979306 0.00131971689269153
30 288.947807979306 0.00120437821988931
55 289.072807979306 0.00106536560054002
75 289.172807979306 0.000992997418851053
100 289.297807979306 0.000924922339230866
150 289.547807979306 0.000912473105911303
225 289.922807979306 0.000894055625005313
375 290.672807979306 0.000858130738327969
500 291.297807979306 0.000829103642334837
750 292.547807979306 0.000773464444238967
1000 293.797807979306 0.000720938613003662
1500 296.297807979306 0.000624722034307538
2000 298.797807979306 0.000539462303563005
3000 303.797807979306 0.000398025971755302
5000 313.797807979306 0.000207494703567754
7000 323.797807979306 0.000101902066013713
ZFRC
1
2011 2 23 0
0.15
73195
288.8
0.0017
19
3 11.4193741503731 0 0 0 0 0 0 0 0 0 0
5.5 12.1083335517099 0 0 0 0 0 0 0 0 0 0
10 12.7878601853643 0 0 0 0 0 0 0 0 0 0
18 13.4559631853510 0 0 0 0 0 0 0 0 0 0
30 14.0365890349778 0 0 0 0 0 0 0 0 0 0
55 14.7255484363146 0 0 0 0 0 0 0 0 0 0
75 15.078083548854 0 0 0 0 0 0 0 0 0 0
100 15.4050750699690 0 0 0 0 0 0 0 0 0 0
150 15.8659437342183 0 0 0 0 0 0 0 0 0 0
225 16.3268123984676 0 0 0 0 0 0 0 0 0 0
375 16.9074382480944 0 0 0 0 0 0 0 0 0 0
500 17.2344297692094 0 0 0 0 0 0 0 0 0 0
750 17.2344297692094 0 0 0 0 0 0 0 0 0 0
1000 17.2344297692094 0 0 0 0 0 0 0 0 0 0
1500 17.2344297692094 0 0 0 0 0 0 0 0 0 0
2000 17.2344297692094 0 0 0 0 0 0 0 0 0 0
3000 17.2344297692094 0 0 0 0 0 0 0 0 0 0
5000 17.2344297692094 0 0 0 0 0 0 0 0 0 0
7000 17.2344297692094 0 0 0 0 0 0 0 0 0 0
