&NAM_CONFIO  LCDF4=T, LLFIOUT=F, LLFIREAD=F /
&NAM_DIAG CISO='', LVAR_RS=F, LVAR_LS=F, LVAR_PR=T, LTOTAL_PR=T /
&NAM_BLANK /
&NAM_DIAG_FILE  YINIFILE(1) = "16JA2.2.WENO5.002",
                YINIFILEPGD(1) = "16JAN98_9km.neste1",
                YSUFFIX = "dg" /
