&NAM_CONFIO  LCDF4=T, LLFIOUT=F, LLFIREAD=F /
&NAM_FILE_NAMES HATMFILE ='ecmwf.EI.19980116.06' , HATMFILETYPE='GRIBEX',
                HPGDFILE ='16JAN98_36km.neste1' , CINIFILE='16JAN_06_MNH' /
&NAM_VER_GRID NKMAX=50, YZGRID_TYPE='FUNCTN',
       ZDZGRD=60., ZDZTOP=700., 
       ZZMAX_STRGRD=2500., ZSTRGRD=9., ZSTRTOP=7. /
