&NAM_CONFIO  LCDF4=T, LLFIOUT=T, LLFIREAD=F /
&NAM_PGDFILE CPGDFILE='16JAN98_9km' ,NHALO=20/
&NAM_PGD_GRID YINIFILE='16JAN98_36km' YINIFILETYPE='MESONH' /
&NAM_INIFILE_CONF_PROJ IXOR=40, IYOR=16, IXSIZE=18, IYSIZE=15, IDXRATIO=4, IDYRATIO=4 /
&NAM_COVER     YCOVER='ECOCLIMAP_v2.0', YCOVERFILETYPE='DIRECT' /
&NAM_ZS        YZS='gtopo30',    YZSFILETYPE='DIRECT' /
&NAM_ISBA      YCLAY='CLAY_HWSD_MOY', YCLAYFILETYPE='DIRECT' ,
               YSAND='SAND_HWSD_MOY', YSANDFILETYPE='DIRECT' /
