&NAM_CONFIO LCDF4=F LLFIOUT=T LLFIREAD=T /
&NAM_FILE_NAMES HATMFILE ='16JA1.1.WENO5.004.spa04' , HATMFILETYPE='MESONH',
                HPGDFILE ='16JAN98_9km.neste1' , CINIFILE='16JAN_00_MNH2' /
&NAM_REAL_CONF NVERB=10 /
&NAM_VER_GRID NKMAX=50, YZGRID_TYPE='FUNCTN',
       ZDZGRD=60., ZDZTOP=700., 
       ZZMAX_STRGRD=2500., ZSTRGRD=9., ZSTRTOP=7. /
