&NAM_CONFIO  LCDF4=T, LLFIOUT=F, LLFIREAD=F /
&NAM_PGDFILE CPGDFILE='16JAN98_36km' /
&NAM_CONF_PROJ XLAT0=50., XLON0=-2.8, XRPK=0.58, XBETA=0. /
&NAM_CONF_PROJ_GRID XLATCEN=48.,  XLONCEN=-1.,
               NIMAX=80, NJMAX=60, XDX=36000., XDY=36000. /
&NAM_COVER     YCOVER='ECOCLIMAP_v2.0', YCOVERFILETYPE='DIRECT' /
&NAM_ZS        YZS='gtopo30',    YZSFILETYPE='DIRECT' /
&NAM_ISBA      YCLAY='CLAY_HWSD_MOY', YCLAYFILETYPE='DIRECT' ,
               YSAND='SAND_HWSD_MOY', YSANDFILETYPE='DIRECT' /
