&NAM_CONFIO LCDF4=F LLFIOUT=T LLFIREAD=T /
&NAM_LUNIT2_SPA  CINIFILE = "16JA1.1.WENO5.004",
                 CINIFILEPGD = "16JAN98_36km.neste1",
                 YDOMAIN  = "16JAN98_9km.neste1",
                 YSPANBR = '04' /
&NAM_CONFZ MPI_BUFFER_SIZE=400 /
