&NAM_REAL_PGD /
&NAM_VER_GRID NKMAX=40, ZDZGRD=30., ZDZTOP=500., ZSTRGRD=20., ZSTRTOP=20. /
&NAM_DIMn_PRE NIMAX=1, NJMAX=1 /
&NAM_CONF_PRE LCARTESIAN=T,
              LPACK=F, 
              LBOUSS=T,
              CEQNSYS='DUR',
              CZS='FLAT',
              CIDEAL='RSOU', LSHIFT=F,
              NVERB=5, LPERTURB=F, LFORCING=T,
              JPHEXT=1,NHALO=1 /
&NAM_CONFIO  LCDF4=T, LLFIOUT=T, LLFIREAD=F /
&NAM_PERT_PRE /
&NAM_CONFn LUSERV=T,
           LUSERC=T,
	   NSV_USER=0 /
&NAM_GRID_PRE XLAT0=49.01, XLON0=2.53 /
&NAM_GRIDH_PRE XHMAX=0. /                                                  
&NAM_LUNITn CINIFILE='FOG3_18N_40niv_s4', CINIFILEPGD='PGD_FOG' /  
&NAM_POST_PRE /
&NAM_DYNn_PRE CPRESOPT ='RICHA', NITR=4, XRELAX=1. /
&NAM_LBCn_PRE CLBCX =2*'CYCL', CLBCY =2*'CYCL' /
&NAM_VPROF_PRE CTYPELOC='IJGRID', NILOC=2, NJLOC=2,
               CFUNU='ZZZ', CFUNV='ZZZ', LGEOSBAL=F /
&NAM_GRn_PRE   CSURF='EXTE'  /
&NAM_PGD_SCHEMES CNATURE='ISBA' /
&NAM_COVER XUNIF_COVER(182)=1 /
&NAM_ISBA XUNIF_CLAY=0.25, XUNIF_SAND=0.16 /
&NAM_PREP_ISBA  XTG_SURF = 289.24, XTG_ROOT = 291.86, XTG_DEEP=291.86,
               XHUG_SURF = 0.5 , XHUG_ROOT = 0.5 , XHUG_DEEP = 0.5 /
&NAM_CH_MNHCn_PRE /
&NAM_BLANK /
RSOU
2003 10 1 64800.
'ZUVTHLMR'
0.
99300.
290.3072
0.01109
36
0.50000000E+00  -0.50400002E-02  0.49030001E-03
0.16500000E+01  -0.57020001E-02  0.49239999E+00
0.30500000E+01  -0.61260001E-02  0.91020000E+00
0.47399998E+01  -0.66370000E-02  0.14150000E+01
0.67800002E+01  -0.72550001E-02  0.20230000E+01
0.92500000E+01  -0.80019999E-02  0.27600000E+01
0.12240000E+02  -0.89069996E-02  0.36530001E+01
0.15850000E+02  -0.99999998E-02  0.47300000E+01
0.20219999E+02  -0.80930004E-02  0.47300000E+01
0.25510000E+02   0.37749998E-01  0.47240000E+01
0.31900000E+02   0.93130000E-01  0.47179999E+01
0.39630001E+02   0.16010000E+00  0.47100000E+01
0.48980000E+02   0.24120000E+00  0.47010002E+01
0.60290001E+02   0.34259999E+00  0.46789999E+01
0.73970001E+02   0.46570000E+00  0.46520000E+01
0.90510002E+02   0.61460000E+00  0.46190000E+01
0.11050000E+03   0.79890001E+00  0.45609999E+01
0.13470000E+03   0.10260000E+01  0.44730000E+01
0.16400000E+03   0.13010000E+01  0.43649998E+01
0.19939999E+03   0.16339999E+01  0.42360001E+01
0.24220000E+03   0.20360000E+01  0.40790000E+01
0.29389999E+03   0.24440000E+01  0.39300001E+01
0.35650000E+03   0.29200001E+01  0.37600000E+01
0.43229999E+03   0.34949999E+01  0.35539999E+01
0.52379999E+03   0.40560002E+01  0.33690000E+01
0.63459998E+03   0.42680001E+01  0.33650000E+01
0.76859998E+03   0.45200000E+01  0.33529999E+01
0.93059998E+03   0.47789998E+01  0.32950001E+01
0.11270000E+04   0.52240000E+01  0.32349999E+01
0.13640000E+04   0.58899999E+01  0.32270000E+01
1482             0.58899999E+01  0.32270000E+01
1879             0.58899999E+01  0.32270000E+0
2379	         0.58899999E+01  0.32270000E+01
3379	         0.58899999E+01  0.32270000E+01
4379	         0.58899999E+01  0.32270000E+01
5379	         0.58899999E+01  0.32270000E+01
37
0.50000000E+00  290.3072  0.11090000E-01  
0.16500000E+01  290.4290  0.11080000E-01
0.30500000E+01  290.5032  0.11100000E-01
0.47399998E+01  290.6003  0.11110000E-01
0.67800002E+01  290.7511  0.11140000E-01
0.92500000E+01  290.9062  0.11160000E-01
0.12240000E+02  291.0466  0.11200000E-01
0.15850000E+02  291.1631  0.11230000E-01
0.20219999E+02  291.2673  0.11260000E-01
0.25510000E+02  291.3608  0.11280000E-01
0.31900000E+02  291.4354  0.11270000E-01
0.39630001E+02  291.4734  0.11260000E-01
0.48980000E+02  291.4878  0.11250000E-01
0.60290001E+02  291.5120  0.11220000E-01
0.73970001E+02  291.5404  0.11200000E-01
0.90510002E+02  291.5780  0.11080000E-01
0.11050000E+03  291.6008  0.1090000E-01
0.13470000E+03  291.6369  0.1080000E-01
0.16400000E+03  291.6756  0.1070000E-01
0.19939999E+03  291.7377  0.1060000E-01
0.24220000E+03  291.9083  0.1040000E-01
0.29389999E+03  292.1134  0.1020000E-01
0.35650000E+03  292.3352  0.1000000E-01
0.43229999E+03  292.7024  0.0980000E-01
0.52379999E+03  293.2468  0.0960000E-01
0.63459998E+03  293.6256  0.0940000E-01
0.76859998E+03  295.3203  0.92299997E-02
0.93059998E+03  296.0997  0.90400000E-02
0.11270000E+04  297.7755  0.85600004E-02
0.13640000E+04  298.9077  0.78899999E-02
1482.000        299.7	  7.290000E-3
1879.000        300.9	  6.370000E-3    
2379.000       	302.5	  4.950000E-3    
3379.000        306.3	  2.360000E-3    
4379.000       	310.5	  1.120000E-3    
5379.000        313.8	  0.8300000E-3    
ZFRC
1
2003 10 1 64800.
0.
99300.
290.3072
0.01109
36
0.50000000E+00  -0.84340004E-02  0.47300000E+01  0.0  0.0   0.00000  0.0  0.0  0.0  0.0
0.16500000E+01  -0.84340004E-02  0.47300000E+01  0.0  0.0   0.00000  0.0  0.0  0.0  0.0
0.30500000E+01  -0.84340004E-02  0.47300000E+01  0.0  0.0   0.00000  0.0  0.0  0.0  0.0
0.47399998E+01  -0.84340004E-02  0.47300000E+01  0.0  0.0   0.00000  0.0  0.0  0.0  0.0
0.67800002E+01  -0.84340004E-02  0.47300000E+01  0.0  0.0   0.00000  0.0  0.0  0.0  0.0
0.92500000E+01  -0.84340004E-02  0.47300000E+01  0.0  0.0   0.00000  0.0  0.0  0.0  0.0
0.12240000E+02  -0.84340004E-02  0.47300000E+01  0.0  0.0   0.00000  0.0  0.0  0.0  0.0
0.15850000E+02  -0.84340004E-02  0.47300000E+01  0.0  0.0   0.00000  0.0  0.0  0.0  0.0
0.20219999E+02  -0.65279999E-02  0.47300000E+01  0.0  0.0   0.00000  0.0  0.0  0.0  0.0
0.25510000E+02   0.39310001E-01  0.47240000E+01  0.0  0.0   0.00000  0.0  0.0  0.0  0.0
0.31900000E+02   0.94669998E-01  0.47179999E+01  0.0  0.0   0.00000  0.0  0.0  0.0  0.0
0.39630001E+02   0.16159999E+00  0.47100000E+01  0.0  0.0   0.00000  0.0  0.0  0.0  0.0
0.48980000E+02   0.24270000E+00  0.47010002E+01  0.0  0.0   0.00000  0.0  0.0  0.0  0.0
0.60290001E+02   0.34410000E+00  0.46789999E+01  0.0  0.0   0.00000  0.0  0.0  0.0  0.0
0.73970001E+02   0.46720001E+00  0.46520000E+01  0.0  0.0   0.00000  0.0  0.0  0.0  0.0
0.90510002E+02   0.61600000E+00  0.46190000E+01  0.0  0.0   0.00000  0.0  0.0  0.0  0.0
0.11050000E+03   0.80019999E+00  0.45609999E+01  0.0  0.0   0.00000  0.0  0.0  0.0  0.0
0.13470000E+03   0.10270000E+01  0.44730000E+01  0.0  0.0   0.00000  0.0  0.0  0.0  0.0
0.16400000E+03   0.13020000E+01  0.43660002E+01  0.0  0.0   0.00000  0.0  0.0  0.0  0.0
0.19939999E+03   0.16350000E+01  0.42360001E+01  0.0  0.0   0.00000  0.0  0.0  0.0  0.0
0.24220000E+03   0.20369999E+01  0.40790000E+01  0.0  0.0   0.00000  0.0  0.0  0.0  0.0
0.29389999E+03   0.24440000E+01  0.39310000E+01  0.0  0.0   0.00000  0.0  0.0  0.0  0.0
0.35650000E+03   0.29200001E+01  0.37609999E+01  0.0  0.0   0.00000  0.0  0.0  0.0  0.0
0.43229999E+03   0.34949999E+01  0.35550001E+01  0.0  0.0   0.00000  0.0  0.0  0.0  0.0
0.52379999E+03   0.40560002E+01  0.33699999E+01  0.0  0.0   0.00000  0.0  0.0  0.0  0.0
0.63459998E+03   0.42680001E+01  0.33650000E+01  0.0  0.0   0.00000  0.0  0.0  0.0  0.0
0.76859998E+03   0.45200000E+01  0.33540001E+01  0.0  0.0   0.00000  0.0  0.0  0.0  0.0
0.93059998E+03   0.47789998E+01  0.32950001E+01  0.0  0.0   0.00000  0.0  0.0  0.0  0.0
0.11270000E+04   0.52240000E+01  0.32349999E+01  0.0  0.0   0.00000  0.0  0.0  0.0  0.0
0.13640000E+04   0.58899999E+01  0.32279999E+01  0.0  0.0   0.00000  0.0  0.0  0.0  0.0
1482	         0.58899999E+01  0.32279999E+01  0.0  0.0   0.00000  0.0  0.0  0.0  0.0
1879	         0.58899999E+01  0.32279999E+01  0.0  0.0   0.00000  0.0  0.0  0.0  0.0
2379	         0.58899999E+01  0.32279999E+01  0.0  0.0   0.00000  0.0  0.0  0.0  0.0
3379	         0.58899999E+01  0.32279999E+01  0.0  0.0   0.00000  0.0  0.0  0.0  0.0
4379	         0.58899999E+01  0.32279999E+01  0.0  0.0   0.00000  0.0  0.0  0.0  0.0
5379	         0.58899999E+01  0.32279999E+01  0.0  0.0   0.00000  0.0  0.0  0.0  0.0

