&NAM_CONFIO  LCDF4=T, LLFIOUT=F, LLFIREAD=F /
&NAM_CONFZ 
  ! NZ_VERB=5 , NB_PROCIO_R=8 , NB_PROCIO_W=8 
/
&NAM_REAL_PGD CPGD_FILE = 'CLB_PGD_50m',
              LREAD_ZS= T, LREAD_GROUND_PARAM= T /
&NAM_CONF_PRE LCARTESIAN= F
              LBOUSS= F 
              CEQNSYS='DUR'
              CIDEAL='RSOU'
              NVERB=5 
              LSHIFT = T
              !JPHEXT = 3 , NHALO = 3 
              /
&NAM_CONFn LUSERV=T LUSERC=.FALSE. LUSERR=.FALSE. 
           LUSERI=.FALSE. LUSERS=.FALSE. LUSERG=.FALSE. LUSERH=.FALSE. /
&NAM_LUNITn CINIFILE = 'CLB50_18031101_UnifSnow',CINIFILEPGD = 'CLB_PGD_50m' /
&NAM_DYNn_PRE CPRESOPT='ZRESI' NITR=26 /
&NAM_LBCn_PRE CLBCX =2*'OPEN' CLBCY =2*'OPEN' /
&NAM_VPROF_PRE CTYPELOC='IJGRID' NILOC=30 NJLOC=30 
              CFUNU='ZZZ' CFUNV='ZZZ' LGEOSBAL=.FALSE. /
&NAM_VER_GRID NKMAX=70, ZDZGRD=10, ZDZTOP=1000.,
              ZZMAX_STRGRD=200. , ZSTRGRD=0. , ZSTRTOP= 15., LSLEVE = .TRUE. /
&NAM_GRn_PRE CSURF='EXTE' /
&NAM_SURF_ATM LNOSOF=T / 
&NAM_BLOWSNOW LBLOWSNOW=.TRUE. /
&NAM_PREP_ISBA XTG_SURF = 270., XTG_ROOT = 270., XTG_DEEP=270.,
         XHUG_SURF = 0. , XHUG_ROOT = 0. , XHUG_DEEP = 0.,
         LISBA_CANOPY=T /
&NAM_PREP_ISBA_SNOW CSNOW='CRO',
                    NSNOW_LAYER=20,
                    LSNOW_FRAC_TOT= .TRUE. 
                    LSNOW_IDEAL=.FALSE.
                    XWSNOW(1)=45,
                    XRSNOW(1)=150.,
                    XTSNOW(1)=265.15, 
	            XSG1SNOW(1)=-33., 
                    XSG2SNOW(1)=83., 
                    XHISTSNOW(1)=0.,
                    XAGESNOW(1)=10
                    XWSNOW(2)=300,
                    XRSNOW(2)=300,
                    XTSNOW(2)=265.15, 
	            XSG1SNOW(2)=-10., 
                    XSG2SNOW(2)=80., 
                    XHISTSNOW(2)=4.,
                    XAGESNOW(2)=10
/
RSOU
2011 3 18 3600
'ZUVTHDMR'
2709.20
72571
293.7
0.00216019992
70
2712.11 -0.260472266500395 -1.47721162951831
2717.94 -0.358376516442557 -2.0324542222786
2723.77 -0.419793560153022 -2.38076758568843
2729.6 -0.460918363889996 -2.61399793745727
2735.45 -0.493567881181847 -2.79916255129384
2741.3 -0.52204578630447 -2.96066877687657
2747.16 -0.547723412494466 -3.10629383145884
2753.03 -0.571242970422897 -3.23967987274380
2758.91 -0.593064377939763 -3.36343522447266
2764.79 -0.613534617755805 -3.4795277233846
2770.68 -0.632876497748441 -3.58922097574406
2776.58 -0.651232568877043 -3.69332342821531
2782.49 -0.668720019711244 -3.79249969020278
2788.4 -0.685447682128194 -3.88736697795272
2794.32 -0.701514277438825 -3.97848516784107
2800.25 -0.717000592735431 -4.06631242623557
2806.19 -0.731948440138496 -4.15108588145499
2812.13 -0.746353073872043 -4.23277861886631
2818.08 -0.760277014376136 -4.31174520950461
2824.04 -0.773422200553904 -4.38629526489008
2830.45 -0.787438958807025 -4.46578825114098
2837.84 -0.8026571606873 -4.55209496279185
2846.35 -0.819150824251474 -4.64563517710225
2856.15 -0.836753824413847 -4.74546675189384
2867.45 -0.855350348192026 -4.85093287910511
2880.47 -0.874288665278085 -4.95833741248944
2895.49 -0.893234960770137 -5.06578719366262
2912.82 -0.912651288690532 -5.17590266120129
2932.82 -0.932454941856456 -5.28821475936321
2955.92 -0.95184656079105 -5.39819009527993
2982.6 -0.971315252732387 -5.50860253393857
3013.45 -0.992637932497918 -5.62952946003836
3049.14 -1.01561366691316 -5.75983132491985
3090.46 -1.03967934214650 -5.89631455134757
3138.34 -1.06583131896245 -6.04462978201094
3193.87 -1.09256269312395 -6.19623093830644
3258.33 -1.11734574283465 -6.33678259756539
3333.26 -1.14185767003193 -6.47579664464311
3420.43 -1.16521318688933 -6.60825236278425
3521.98 -1.18691466899111 -6.73132758368687
3640.41 -1.20383287889889 -6.82727551995732
3778.71 -1.21340433527968 -6.88155794651695
3940.41 -1.21619740212304 -6.89739821572666
4129.71 -1.21614623600932 -6.89710803827615
4351.59 -1.21202043146835 -6.87370943799165
4611.91 -1.19865605692709 -6.79791630362525
4917.63 -1.16957884799207 -6.63301125722685
5276.97 -1.14984199104988 -6.52107797927422
5699.55 -1.14218563295643 -6.47765661481436
6196.68 -1.17476277716461 -6.66241078049727
6781.57 -1.24011735108313 -7.03305498739024
7469.56 -1.28487185840821 -7.28687041112891
8275.37 -1.17211478319056 -6.6473932604138
9151.84 -0.936153626559363 -5.3091910426753
10044.15 -0.809749636912948 -4.59231839426644
10950.01 -0.836295547524794 -4.7428677345046
11867.51 -0.697170539757723 -3.95385060730104
12795.03 -0.395251050785589 -2.24158009850511
13731.17 -0.302388614659221 -1.71493105277623
14674.72 -0.492815091064679 -2.79489326638836
15624.62 -0.480740164490586 -2.72641295483549
16579.96 -0.419144844673798 -2.377088537385
17539.91 -0.414068703078427 -2.34830030784137
18503.75 -0.346438324386456 -1.96474937071173
19470.82 -0.273748858515085 -1.5525069244377
20440.54 -0.180931682074724 -1.02611455914324
21412.35 -0.0807465474300693 -0.457936426437051
22385.76 -0.064880052490486 -0.367953062145136
23360.28 -0.103237414281740 -0.585488470720371
24335.47 -0.059323871642761 -0.336442394716925
70
2712.11 293.735443 0.00216019992
2717.94 293.889282 0.00216288539
2723.77 293.988647 0.00216172752
2729.6 294.058472 0.00215966627
2735.45 294.117493 0.00215767627
2741.3 294.174957 0.00215580338
2747.16 294.230896 0.00215393468
2753.03 294.284149 0.00215224572
2758.91 294.335266 0.00215070811
2764.79 294.384583 0.00214932137
2770.68 294.432373 0.00214811554
2776.58 294.478455 0.00214714045
2782.49 294.522522 0.00214647106
2788.4 294.56485 0.00214623311
2794.32 294.605438 0.00214654696
2800.25 294.643982 0.00214749039
2806.19 294.68103 0.0021494464
2812.13 294.716339 0.00215256051
2818.08 294.750061 0.0021569652
2824.04 294.781128 0.00216247211
2830.45 294.813568 0.00217014621
2837.84 294.848511 0.00218032324
2846.35 294.887482 0.0021939259
2856.15 294.931305 0.00221153535
2867.45 294.983856 0.00223512296
2880.47 295.044403 0.00226550386
2895.49 295.107483 0.00230158796
2912.82 295.19455 0.00233492535
2932.82 295.272858 0.00234869332
2955.92 295.361542 0.00232207123
2982.6 295.392242 0.00228785141
3013.45 295.479736 0.00216230587
3049.14 295.636139 0.00198566006
3090.46 295.998383 0.00170042529
3138.34 296.688446 0.00146317936
3193.87 297.263306 0.00127920287
3258.33 297.799896 0.00114006631
3333.26 298.344086 0.00105680944
3420.43 298.86911 0.00101414206
3521.98 299.431305 0.00093907729
3640.41 300.035675 0.000831283047
3778.71 300.627625 0.000607483438
3940.41 301.33139 0.000424762082
4129.71 302.076172 0.000389666093
4351.59 302.813263 0.000388332264
4611.91 303.713745 0.00039172906
4917.63 304.695404 0.00038541478
5276.97 305.522552 0.000314121658
5699.55 306.491608 0.000216811794
6196.68 307.664856 0.000108867294
6781.57 308.945709 4.51532615e-05
7469.56 310.178406 1.59207102e-05
8275.37 311.586365 9.45187094e-06
9151.84 313.951874 1.15571866e-05
10044.15 318.779419 1.12670605e-05
10950.01 329.823273 9.88310512e-06
11867.51 348.836609 9.27258134e-06
12795.03 367.117554 7.48465891e-06
13731.17 381.895905 5.41679174e-06
14674.72 395.215942 5.06036486e-06
15624.62 414.41983 5.23695098e-06
16579.96 431.299133 5.17264289e-06
17539.91 447.7435 4.79727578e-06
18503.75 466.73526 4.43078761e-06
19470.82 484.736145 4.27163332e-06
20440.54 506.644379 4.02919159e-06
21412.35 530.976501 3.64484163e-06
22385.76 554.889465 3.05344042e-06
23360.28 580.309937 3.39307894e-06
24335.47 605.652161 3.82873577e-06
