&NAM_CONFIO  LCDF4=T, LLFIOUT=F, LLFIREAD=F /
&NAM_CONFZ 
  ! NZ_VERB=5 , NB_PROCIO_R=8 , NB_PROCIO_W=8 
/
&NAM_REAL_PGD CPGD_FILE = 'CLB_PGD_50m',
              LREAD_ZS= T, LREAD_GROUND_PARAM= T /
&NAM_CONF_PRE LCARTESIAN= F
              LBOUSS= F 
              CEQNSYS='DUR'
              CIDEAL='RSOU'
              NVERB=5 
              LSHIFT = T
              !JPHEXT = 3 , NHALO = 3 
              /
&NAM_CONFn LUSERV=T LUSERC=.FALSE. LUSERR=.FALSE. 
           LUSERI=.FALSE. LUSERS=.FALSE. LUSERG=.FALSE. LUSERH=.FALSE. /
&NAM_LUNITn CINIFILE = 'CLB50_18031102',CINIFILEPGD = 'CLB_PGD_50m' /
&NAM_DYNn_PRE CPRESOPT='ZRESI' NITR=26 /
&NAM_LBCn_PRE CLBCX =2*'OPEN' CLBCY =2*'OPEN' /
&NAM_VPROF_PRE CTYPELOC='IJGRID' NILOC=30 NJLOC=30 
              CFUNU='ZZZ' CFUNV='ZZZ' LGEOSBAL=.FALSE. /
&NAM_VER_GRID NKMAX=70, ZDZGRD=10, ZDZTOP=1000.,
              ZZMAX_STRGRD=200. , ZSTRGRD=0. , ZSTRTOP= 15., LSLEVE = .TRUE. /
&NAM_GRn_PRE CSURF='EXTE' /
&NAM_SURF_ATM LNOSOF=T / 
&NAM_BLOWSNOW LBLOWSNOW=.TRUE. /
&NAM_PREP_ISBA XTG_SURF = 270., XTG_ROOT = 270., XTG_DEEP=270.,
         XHUG_SURF = 0. , XHUG_ROOT = 0. , XHUG_DEEP = 0.,
         LISBA_CANOPY=T /
&NAM_PREP_ISBA_SNOW CSNOW='CRO',
                    NSNOW_LAYER=20,
                    LSNOW_FRAC_TOT= .TRUE. 
                    LSNOW_IDEAL=.FALSE.
                    XWSNOW(1)=45,
                    XRSNOW(1)=120.,
                    XTSNOW(1)=265.15, 
	            XSG1SNOW(1)=-90., 
                    XSG2SNOW(1)=50., 
                    XHISTSNOW(1)=0.,
                    XAGESNOW(1)=10
                    XWSNOW(2)=300,
                    XRSNOW(2)=300,
                    XTSNOW(2)=265.15, 
	            XSG1SNOW(2)=-10., 
                    XSG2SNOW(2)=80., 
                    XHISTSNOW(2)=4.,
                    XAGESNOW(2)=10
/
RSOU
2011 3 18 7200
'ZUVTHDMR'
2709.20
72579
293.0
0.00240679877
70
2712.11 -1.45358560913409 -3.99369363834011
2717.94 -2.02241090485870 -5.55652829395807
2723.77 -2.36843750759823 -6.50722857151552
2729.6 -2.59437737383389 -7.12799325215258
2735.45 -2.76481341209689 -7.59626241874148
2741.3 -2.90781542586674 -7.98915722251068
2747.16 -3.03582713713899 -8.34086650865694
2753.03 -3.15325521344879 -8.66349749672811
2758.91 -3.26287861193647 -8.9646853087169
2764.79 -3.36612676924899 -9.24835728953334
2770.68 -3.46377625447129 -9.51664704520297
2776.58 -3.5565042698912 -9.77141517372
2782.49 -3.64500809680154 -10.0145774396915
2788.4 -3.72984614861142 -10.2476680713497
2794.32 -3.81145313720698 -10.4718814297857
2800.25 -3.89013684545848 -10.6880631414856
2806.19 -3.96614927487522 -10.896905574906
2812.13 -4.0397812711298 -11.0992078219648
2818.08 -4.11108793009792 -11.2951212573365
2824.04 -4.17882223989064 -11.4812197440143
2830.45 -4.25056469609654 -11.6783305224562
2837.84 -4.32763617163858 -11.8900826611920
2846.35 -4.40993010212468 -12.1161833769608
2856.15 -4.49585741853393 -12.3522667385095
2867.45 -4.58474503148989 -12.5964834479752
2880.47 -4.67690837844795 -12.8497001626439
2895.49 -4.76935174612427 -13.1036862279129
2912.82 -4.85641711083207 -13.3428963514642
2932.82 -4.93844110294524 -13.5682554176486
2955.92 -5.02309964330935 -13.800852845663
2982.6 -5.1187702754693 -14.0637057472274
3013.45 -5.22266370288249 -14.3491505930749
3049.14 -5.32484493098952 -14.6298912099911
3090.46 -5.43750814231112 -14.9394308391004
3138.34 -5.55576131434808 -15.2643287590509
3193.87 -5.6701013368006 -15.5784753888791
3258.33 -5.7810327268012 -15.8832568780145
3333.26 -5.89707629430879 -16.2020839594145
3420.43 -6.02137753113091 -16.5435988007936
3521.98 -6.13288801334517 -16.8499713327098
3640.41 -6.23672914394735 -17.1352724942499
3778.71 -6.31061748311771 -17.3382790376815
3940.41 -6.34514640260319 -17.4331464642860
4129.71 -6.35229767018748 -17.4527944104943
4351.59 -6.34744372068069 -17.4394582938292
4611.91 -6.31030370225166 -17.3374169318373
4917.63 -6.21411772800484 -17.0731481395260
5276.97 -6.11324072124194 -16.7959908413027
5699.55 -6.07177737600132 -16.6820712365191
6196.68 -6.13789668258176 -16.8637325383388
6781.57 -6.34406122235334 -17.4301649560535
7469.56 -6.5112269647971 -17.8894490587241
8275.37 -5.85703753019472 -16.0920783591082
9151.84 -4.82578006232688 -13.2587217524974
10044.15 -4.42180293487987 -12.1488037168606
10950.01 -4.48910684563103 -12.3337196918904
11867.51 -3.77367110473215 -10.3680761486999
12795.03 -2.28405231303991 -6.27538215493024
13731.17 -1.60485606576141 -4.40930580215425
14674.72 -2.63446462174735 -7.23813206060291
15624.62 -2.791274484554 -7.66896361781195
16579.96 -1.93708229696557 -5.3220898705382
17539.91 -2.07893618580392 -5.71183022698338
18503.75 -2.09029909751798 -5.74304957033704
19470.82 -1.43832170377374 -3.95175640302985
20440.54 -1.03647728083756 -2.84769792487891
21412.35 -0.463214010895901 -1.27267003531149
22385.76 -0.143154283175542 -0.393313160523014
23360.28 -0.270295134869526 -0.742629779642463
24335.47 -0.367706012963999 -1.01026396761628
70
2712.11 293.321594 0.00240679877
2717.94 293.467133 0.0024137611
2723.77 293.556885 0.00241565122
2729.6 293.618317 0.00241645519
2735.45 293.666504 0.00241661421
2741.3 293.708496 0.00241655298
2747.16 293.748413 0.00241677416
2753.03 293.787231 0.00241737044
2758.91 293.825348 0.00241816929
2764.79 293.862915 0.00241889269
2770.68 293.899902 0.00241971528
2776.58 293.93634 0.00242064684
2782.49 293.972168 0.00242171576
2788.4 294.007385 0.00242284476
2794.32 294.042023 0.00242416468
2800.25 294.07608 0.00242571998
2806.19 294.109619 0.00242750463
2812.13 294.142609 0.00242970022
2818.08 294.175354 0.00243233331
2824.04 294.206635 0.00243515964
2830.45 294.240051 0.00243838108
2837.84 294.276794 0.00244213152
2846.35 294.317352 0.0024454887
2856.15 294.361725 0.00244895485
2867.45 294.408844 0.00244813738
2880.47 294.455475 0.00244118203
2895.49 294.496552 0.00242417213
2912.82 294.516357 0.00239527179
2932.82 294.528168 0.00235772552
2955.92 294.540253 0.00229977304
2982.6 294.589813 0.00218403968
3013.45 294.767303 0.00193802058
3049.14 295.216339 0.00175392919
3090.46 295.628326 0.00159373041
3138.34 296.12851 0.00145490724
3193.87 296.638611 0.00132873515
3258.33 297.145966 0.0012352285
3333.26 297.641083 0.00120460137
3420.43 298.205261 0.0011289448
3521.98 298.79425 0.00104853243
3640.41 299.479309 0.000896759739
3778.71 300.206696 0.000703585567
3940.41 301.059021 0.000530599442
4129.71 301.989349 0.000404348539
4351.59 302.89505 0.000364977634
4611.91 303.856506 0.000324118038
4917.63 304.883911 0.000281976798
5276.97 305.833038 0.000235939689
5699.55 306.805145 0.000174957138
6196.68 307.89386 0.000102016209
6781.57 309.019745 4.72470674e-05
7469.56 310.122925 1.84232304e-05
8275.37 311.75058 1.39690792e-05
9151.84 314.009857 1.83783504e-05
10044.15 318.981964 1.59808078e-05
10950.01 328.897705 1.10506571e-05
11867.51 346.611053 9.36061315e-06
12795.03 364.90567 7.13657118e-06
13731.17 381.6633 4.95236418e-06
14674.72 394.765472 4.48244555e-06
15624.62 414.858856 4.80677272e-06
16579.96 431.941772 4.90003777e-06
17539.91 446.718506 4.72122429e-06
18503.75 466.337616 4.3744767e-06
19470.82 485.18808 4.21251616e-06
20440.54 505.980591 4.0394807e-06
21412.35 530.83136 3.60568993e-06
22385.76 554.227295 3.14810131e-06
23360.28 580.132935 3.36589187e-06
24335.47 605.349792 3.78761479e-06
