&NAM_CONFIO  LCDF4=T, LLFIOUT=T, LLFIREAD=F /
&NAM_CONFZ 
  ! NZ_VERB=5 , NB_PROCIO_R=8 , NB_PROCIO_W=8 
/
&NAM_REAL_PGD CPGD_FILE = 'CLB_PGD_50m',
              LREAD_ZS= T, LREAD_GROUND_PARAM= T /
&NAM_CONF_PRE LCARTESIAN= F
              LBOUSS= F 
              CEQNSYS='DUR'
              CIDEAL='RSOU'
              NVERB=5 
              LSHIFT = T
              !JPHEXT = 3 , NHALO = 3 
              /
&NAM_CONFn LUSERV=T LUSERC=.FALSE. LUSERR=.FALSE. 
           LUSERI=.FALSE. LUSERS=.FALSE. LUSERG=.FALSE. LUSERH=.FALSE. /
&NAM_LUNITn CINIFILE = 'CLB50_18031103',CINIFILEPGD = 'CLB_PGD_50m' /
&NAM_DYNn_PRE CPRESOPT='ZRESI' NITR=26 /
&NAM_LBCn_PRE CLBCX =2*'OPEN' CLBCY =2*'OPEN' /
&NAM_VPROF_PRE CTYPELOC='IJGRID' NILOC=30 NJLOC=30 
              CFUNU='ZZZ' CFUNV='ZZZ' LGEOSBAL=.FALSE. /
&NAM_VER_GRID NKMAX=70, ZDZGRD=10, ZDZTOP=1000.,
              ZZMAX_STRGRD=200. , ZSTRGRD=0. , ZSTRTOP= 15., LSLEVE = .TRUE. /
&NAM_GRn_PRE CSURF='EXTE' /
&NAM_SURF_ATM LNOSOF=T / 
&NAM_BLOWSNOW LBLOWSNOW=.TRUE. /
&NAM_PREP_ISBA XTG_SURF = 270., XTG_ROOT = 270., XTG_DEEP=270.,
         XHUG_SURF = 0. , XHUG_ROOT = 0. , XHUG_DEEP = 0.,
         LISBA_CANOPY=T /
&NAM_PREP_ISBA_SNOW CSNOW='CRO',
                    NSNOW_LAYER=20,
                    LSNOW_FRAC_TOT= .TRUE. 
                    LSNOW_IDEAL=.FALSE.
                    XWSNOW(1)=45,
                    XRSNOW(1)=150.,
                    XTSNOW(1)=265.15, 
	            XSG1SNOW(1)=-90., 
                    XSG2SNOW(1)=50., 
                    XHISTSNOW(1)=0.,
                    XAGESNOW(1)=10
                    XWSNOW(2)=300,
                    XRSNOW(2)=300,
                    XTSNOW(2)=265.15, 
	            XSG1SNOW(2)=-10., 
                    XSG2SNOW(2)=80., 
                    XHISTSNOW(2)=4.,
                    XAGESNOW(2)=10
/
RSOU
2011 3 18 10800
'ZUVTHDMR'
2709.20
72584
293.1
0.00244612712
70
2712.11 -2.13762589578543 -5.87307887991193
2717.94 -2.97656207802728 -8.17803709698488
2723.77 -3.49207703014868 -9.59440278732966
2729.6 -3.82969694648129 -10.5220058838116
2735.45 -4.08190431097174 -11.2149399227693
2741.3 -4.28241381428507 -11.7658352555088
2747.16 -4.45008944056864 -12.2265202525158
2753.03 -4.60053274234518 -12.6398598270550
2758.91 -4.74204337703157 -13.0286571004686
2764.79 -4.87726670740128 -13.4001801472428
2770.68 -5.00728811480812 -13.7574110281388
2776.58 -5.13262321642147 -14.1017663896865
2782.49 -5.25360358873686 -14.4341572308203
2788.4 -5.37037107178329 -14.7549732538169
2794.32 -5.48295558696455 -15.0642966670577
2800.25 -5.59139212272066 -15.3622236004914
2806.19 -5.69570952787107 -15.6488333155983
2812.13 -5.79592477883647 -15.9241724547107
2818.08 -5.89204560562105 -16.1882622558407
2824.04 -5.98251653905642 -16.4368291025713
2830.45 -6.07739335296582 -16.6975010064172
2837.84 -6.17803220076367 -16.9740039682617
2846.35 -6.28337851015594 -17.2634405745399
2856.15 -6.39206510599973 -17.5620545424181
2867.45 -6.5037335971917 -17.8688612004326
2880.47 -6.61853784410233 -18.184283276477
2895.49 -6.73638038950176 -18.508053009013
2912.82 -6.85761263420245 -18.8411358638380
2932.82 -6.98719169304418 -19.1971514020398
2955.92 -7.12369824109502 -19.5722000604172
2982.6 -7.250146537283 -19.9196138989221
3013.45 -7.37700470862135 -20.2681538601476
3049.14 -7.50377892249793 -20.6164631501426
3090.46 -7.6317488829556 -20.9680577268685
3138.34 -7.75972801585843 -21.3196775046804
3193.87 -7.88898467064982 -21.6748072450340
3258.33 -8.01906532909356 -22.032200916816
3333.26 -8.1524664866575 -22.3987175849520
3420.43 -8.29009044564888 -22.7768363046568
3521.98 -8.4211389819856 -23.1368891990945
3640.41 -8.51938215724103 -23.4068101047243
3778.71 -8.58193331415688 -23.5786679959114
3940.41 -8.59340808004104 -23.6101946560717
4129.71 -8.58732430784424 -23.5934796293358
4351.59 -8.57303833546038 -23.5542292427962
4611.91 -8.53930393143537 -23.4615447294787
4917.63 -8.45533685339099 -23.2308470785742
5276.97 -8.33615324472884 -22.9033928050059
5699.55 -8.28802560988863 -22.7711632150306
6196.68 -8.3370061341863 -22.9057360995315
6781.57 -8.50191179298775 -23.3588106734288
7469.56 -8.62849834159516 -23.7066043573343
8275.37 -8.00343122918478 -21.9892465803431
9151.84 -6.67849719348906 -18.3490202350023
10044.15 -6.07917669082231 -16.7024006869092
10950.01 -6.02315797921725 -16.5484905417073
11867.51 -5.3238441025953 -14.6271414565772
12795.03 -3.03346437719256 -8.33437487905654
13731.17 -2.06689703798767 -5.67875294020877
14674.72 -3.79456256102766 -10.4254749531314
15624.62 -4.10577378720996 -11.2805207697480
16579.96 -2.40414147953783 -6.60532442820441
17539.91 -2.73411347766800 -7.51191504211936
18503.75 -3.17164847299949 -8.71403256201382
19470.82 -2.05134654787540 -5.63602831976386
20440.54 -1.56840590368136 -4.30915980490386
21412.35 -0.79962672536274 -2.19695637192657
22385.76 -0.196440672843517 -0.539716312900035
23360.28 -0.130916725710737 -0.359690747719184
24335.47 -0.5500417074658 -1.51122717102055
70
2712.11 293.264832 0.00244612712
2717.94 293.394531 0.00245162845
2723.77 293.474823 0.00245244615
2729.6 293.52948 0.002452377
2735.45 293.572601 0.002451726
2741.3 293.608215 0.00245071156
2747.16 293.639038 0.00244953739
2753.03 293.667938 0.00244837487
2758.91 293.696289 0.00244716462
2764.79 293.724213 0.00244582654
2770.68 293.751892 0.00244435179
2776.58 293.77951 0.00244266866
2782.49 293.806824 0.00244075619
2788.4 293.834015 0.00243854523
2794.32 293.860962 0.00243597664
2800.25 293.887573 0.00243299734
2806.19 293.913788 0.00242956984
2812.13 293.939453 0.00242562266
2818.08 293.964508 0.00242112321
2824.04 293.987823 0.00241629663
2830.45 294.011871 0.00241040322
2837.84 294.036957 0.00240312121
2846.35 294.062347 0.0023938627
2856.15 294.086731 0.00238234829
2867.45 294.110657 0.0023678015
2880.47 294.133026 0.00234801951
2895.49 294.154327 0.00232329033
2912.82 294.181824 0.00228303927
2932.82 294.214539 0.00222240901
2955.92 294.309235 0.00210318668
2982.6 294.480743 0.00189115526
3013.45 294.817963 0.00173349516
3049.14 295.196259 0.00160118146
3090.46 295.575806 0.00149778777
3138.34 295.989502 0.00139499642
3193.87 296.419495 0.00132575654
3258.33 296.875397 0.00126772991
3333.26 297.386292 0.00119616557
3420.43 297.96994 0.00110095402
3521.98 298.604828 0.000975840841
3640.41 299.325836 0.00083956559
3778.71 300.177155 0.000714859634
3940.41 301.144897 0.000585876754
4129.71 302.174835 0.00045650173
4351.59 303.203613 0.000343988911
4611.91 304.178131 0.000248219061
4917.63 305.137482 0.000188418751
5276.97 306.131012 0.00015093734
5699.55 307.087585 0.000133776673
6196.68 308.07782 9.714716e-05
6781.57 309.091553 4.05479077e-05
7469.56 310.235779 1.98626731e-05
8275.37 311.848877 1.81168925e-05
9151.84 314.332428 2.49886652e-05
10044.15 319.197449 2.08012207e-05
10950.01 328.145874 1.26924042e-05
11867.51 343.89267 9.43573286e-06
12795.03 363.317047 6.90532988e-06
13731.17 380.74649 4.75399929e-06
14674.72 394.467407 3.95600364e-06
15624.62 414.82489 4.40497433e-06
16579.96 432.617889 4.63848437e-06
17539.91 445.683624 4.60980482e-06
18503.75 465.910187 4.30966702e-06
19470.82 485.399384 3.93422897e-06
20440.54 505.394379 3.83313409e-06
21412.35 530.305054 3.61412754e-06
22385.76 553.741516 3.14605245e-06
23360.28 579.644531 3.34860465e-06
24335.47 605.42688 3.72879276e-06
