&NAM_CONFIO  LCDF4=T, LLFIOUT=F, LLFIREAD=F /
&NAM_CONFZ 
  ! NZ_VERB=5 , NB_PROCIO_R=8 , NB_PROCIO_W=8 
/
&NAM_REAL_PGD CPGD_FILE = 'CLB_PGD_50m',
              LREAD_ZS= T, LREAD_GROUND_PARAM= T /
&NAM_CONF_PRE LCARTESIAN= F
              LBOUSS= F 
              CEQNSYS='DUR'
              CIDEAL='RSOU'
              NVERB=5 
              LSHIFT = T
              !JPHEXT = 3 , NHALO = 3 
              /
&NAM_CONFn LUSERV=T LUSERC=.FALSE. LUSERR=.FALSE. 
           LUSERI=.FALSE. LUSERS=.FALSE. LUSERG=.FALSE. LUSERH=.FALSE. /
&NAM_LUNITn CINIFILE = 'CLB50_18031104',CINIFILEPGD = 'CLB_PGD_50m' /
&NAM_DYNn_PRE CPRESOPT='ZRESI' NITR=26 /
&NAM_LBCn_PRE CLBCX =2*'OPEN' CLBCY =2*'OPEN' /
&NAM_VPROF_PRE CTYPELOC='IJGRID' NILOC=30 NJLOC=30 
              CFUNU='ZZZ' CFUNV='ZZZ' LGEOSBAL=.FALSE. /
&NAM_VER_GRID NKMAX=70, ZDZGRD=10, ZDZTOP=1000.,
              ZZMAX_STRGRD=200. , ZSTRGRD=0. , ZSTRTOP= 15., LSLEVE = .TRUE. /
&NAM_GRn_PRE CSURF='EXTE' /
&NAM_SURF_ATM LNOSOF=T / 
&NAM_BLOWSNOW LBLOWSNOW=.TRUE. /
&NAM_PREP_ISBA XTG_SURF = 270., XTG_ROOT = 270., XTG_DEEP=270.,
         XHUG_SURF = 0. , XHUG_ROOT = 0. , XHUG_DEEP = 0.,
         LISBA_CANOPY=T /
&NAM_PREP_ISBA_SNOW CSNOW='CRO',
                    NSNOW_LAYER=20,
                    LSNOW_FRAC_TOT= .TRUE. 
                    LSNOW_IDEAL=.FALSE.
                    XWSNOW(1)=45,
                    XRSNOW(1)=150.,
                    XTSNOW(1)=265.15, 
	            XSG1SNOW(1)=-90., 
                    XSG2SNOW(1)=50., 
                    XHISTSNOW(1)=0.,
                    XAGESNOW(1)=10
                    XWSNOW(2)=300,
                    XRSNOW(2)=300,
                    XTSNOW(2)=265.15, 
	            XSG1SNOW(2)=-10., 
                    XSG2SNOW(2)=80., 
                    XHISTSNOW(2)=4.,
                    XAGESNOW(2)=10
/
RSOU
2011 3 18 14400
'ZUVTHDMR'
2709.20
72623
293.1
0.00234952872
70
2712.11 -2.22313093161685 -6.1080020351084
2717.94 -3.09377865725530 -8.50008700159956
2723.77 -3.63530701590679 -9.98792393898885
2729.6 -3.99158551800810 -10.9667910785493
2735.45 -4.2587791478563 -11.7008995431794
2741.3 -4.47077691203178 -12.2833586132264
2747.16 -4.64864994158129 -12.7720607454436
2753.03 -4.80856601517765 -13.2114265466575
2758.91 -4.95899265583902 -13.624720345159
2764.79 -5.10282715439811 -14.0199023820887
2770.68 -5.2409080514157 -14.3992765287026
2776.58 -5.37357147820552 -14.7637662981950
2782.49 -5.50110445279756 -15.1141602661226
2788.4 -5.62386931335376 -15.4514539484032
2794.32 -5.74215005252582 -15.7764276084349
2800.25 -5.85617679551593 -16.0897135100141
2806.19 -5.96624477209512 -16.3921227902705
2812.13 -6.07249303179224 -16.6840374846447
2818.08 -6.17510439389457 -16.9659598850003
2824.04 -6.27175230321676 -17.2314978335006
2830.45 -6.37367607934713 -17.5115311069243
2837.84 -6.48292948264799 -17.8117023654920
2846.35 -6.59896649127635 -18.1305114265195
2856.15 -6.71912453660501 -18.4606429428258
2867.45 -6.84044413073876 -18.7939657882456
2880.47 -6.96195035535062 -19.1278013966899
2895.49 -7.0798616447573 -19.4517600018335
2912.82 -7.19072399923255 -19.7563518174219
2932.82 -7.29208387628466 -20.0348357908612
2955.92 -7.39544313547135 -20.3188130215682
2982.6 -7.50996710134575 -20.6334650317945
3013.45 -7.63380848579027 -20.9737164391498
3049.14 -7.76885276741192 -21.3447475535318
3090.46 -7.92134031932971 -21.7637036591738
3138.34 -8.083821245764 -22.2101163356441
3193.87 -8.24001759712393 -22.6392622840067
3258.33 -8.39069306532589 -23.0532397305574
3333.26 -8.53698224580489 -23.4551659506339
3420.43 -8.68160023875637 -23.852500620715
3521.98 -8.82496148171362 -24.2463823985650
3640.41 -8.94497863085397 -24.5761268057754
3778.71 -9.02974053615855 -24.8090082266297
3940.41 -9.05834250167648 -24.8875914810422
4129.71 -9.05533063937552 -24.8793164573798
4351.59 -9.0318508750237 -24.8148063350091
4611.91 -9.00081410864311 -24.7295335202055
4917.63 -8.92713369247832 -24.5270982405367
5276.97 -8.81649989158015 -24.2231343707406
5699.55 -8.74084630012896 -24.0152778365278
6196.68 -8.73263200520162 -23.9927092466982
6781.57 -8.932212438211 -24.5410519797564
7469.56 -9.09833324832772 -24.9974651544536
8275.37 -8.79180687195814 -24.1552908569109
9151.84 -7.52753700533262 -20.6817379462604
10044.15 -6.43616931458558 -17.6832298596106
10950.01 -5.89362551718351 -16.1926030271833
11867.51 -5.56842988508446 -15.2991353710859
12795.03 -3.52451997370531 -9.68353904217213
13731.17 -2.3790801802947 -6.53646907443172
14674.72 -4.28667443215756 -11.7775412069063
15624.62 -4.25923405473535 -11.7021493895575
16579.96 -2.34251425615012 -6.43600502352298
17539.91 -2.84098961954938 -7.8055548286169
18503.75 -3.24993081058895 -8.92911151688298
19470.82 -1.92085540425001 -5.27750684921428
20440.54 -1.43474772830968 -3.94193698614467
21412.35 -0.752088046589274 -2.06634492544576
22385.76 -0.215311456287008 -0.591563364298444
23360.28 -0.149594882055713 -0.411008560514048
24335.47 -0.614452528473692 -1.68819444730827
70
2712.11 293.289734 0.00234952872
2717.94 293.410126 0.0023513909
2723.77 293.483948 0.00235087564
2729.6 293.534943 0.00235008658
2735.45 293.575653 0.00234911568
2741.3 293.609528 0.00234819436
2747.16 293.639252 0.00234734337
2753.03 293.667419 0.00234673382
2758.91 293.695404 0.002346233
2764.79 293.723572 0.00234635035
2770.68 293.752014 0.00234699529
2776.58 293.780731 0.00234821532
2782.49 293.809723 0.00235004094
2788.4 293.839111 0.00235251826
2794.32 293.868927 0.00235570874
2800.25 293.899109 0.00235969666
2806.19 293.92981 0.00236453838
2812.13 293.960938 0.00237034517
2818.08 293.99292 0.00237725023
2824.04 294.024475 0.00238503795
2830.45 294.059265 0.00239486853
2837.84 294.098572 0.00240732054
2846.35 294.141815 0.00242252089
2856.15 294.188416 0.00244118227
2867.45 294.235809 0.00245655328
2880.47 294.280762 0.00247309729
2895.49 294.312958 0.00247253315
2912.82 294.330475 0.00245757052
2932.82 294.34314 0.00240609166
2955.92 294.358032 0.00235017366
2982.6 294.437683 0.00216084206
3013.45 294.628571 0.00191137835
3049.14 295.048401 0.00170846423
3090.46 295.398499 0.00154489989
3138.34 295.837769 0.00140220625
3193.87 296.30481 0.00127388234
3258.33 296.80307 0.00117685983
3333.26 297.317413 0.0010996887
3420.43 297.937775 0.00101531041
3521.98 298.587555 0.000933288946
3640.41 299.346649 0.00084291806
3778.71 300.261475 0.000717681251
3940.41 301.287567 0.000602510059
4129.71 302.449341 0.000447463855
4351.59 303.56369 0.000282614841
4611.91 304.639038 0.00017293822
4917.63 305.632385 0.000141260913
5276.97 306.601105 0.000133715279
5699.55 307.52124 0.000128368658
6196.68 308.424286 0.000107993299
6781.57 309.423431 6.03150511e-05
7469.56 310.468414 3.26233348e-05
8275.37 311.881958 2.80463955e-05
9151.84 314.114716 2.91120414e-05
10044.15 318.795074 2.22887356e-05
10950.01 327.783325 1.29271484e-05
11867.51 342.365723 9.17864782e-06
12795.03 362.361084 6.32470619e-06
13731.17 379.78418 4.57539954e-06
14674.72 394.540802 3.61462799e-06
15624.62 414.430084 4.11941528e-06
16579.96 432.162292 4.47593811e-06
17539.91 445.3255 4.49947174e-06
18503.75 465.923981 4.24989412e-06
19470.82 485.658051 3.79248331e-06
20440.54 505.476746 3.67217399e-06
21412.35 530.628052 3.52492634e-06
22385.76 553.880737 3.21310154e-06
23360.28 580.330261 3.31585579e-06
24335.47 605.946289 3.6608094e-06
