&NAM_DIAG 
  CISO='PREVTK',
  LVAR_RS=T, 
  NCONV_KF=-1, 
  LVAR_MRW=T,
  LVAR_MRSV=F,
  LTRAJ=T,
  LTPZH=T,
  LMOIST_V=T, LMOIST_E=T,
  LMSLP=T,
  LCLD_COV=F, 
  LVORT=T,
  LVAR_PR=F, LTOTAL_PR=T, 
  NCAPE=1,
  LRADAR=T,
  LTHW=T,
/
&NAM_CONFIO LCDF4=T LLFIREAD=F LLFIOUT=F /
&NAM_DIAG_SURFn  N2M=1
/
&NAM_DIAG_FILE  YSUFFIX = "d" 
YINIFILE(1) = "FANNY.1.WENO5.025", 
YINIFILEPGD(1)='PGD_2.5km_AR'/
