&NAM_CONFIO  LCDF4=T, LLFIOUT=T, LLFIREAD=T /
&NAM_DIAG LTOTAL_PR=T, LRADAR=T , LVAR_PR=T /
&NAM_DIAG_FILE  YSUFFIX = "diag" 
YINIFILE(1) = "K_MAP.3.WENO5.013", 
YINIFILEPGD(1)='KMAP_PGD_2km.neste1'/
