&NAM_CONFIO  LCDF4=T, LLFIOUT=T, LLFIREAD=F /
&NAM_PGD1 YPGD1 = 'KMAP_PGD_32km' /
&NAM_PGD2 YPGD2 = 'KMAP_PGD_8km', IDAD = 1 /
&NAM_PGD3 YPGD3 = 'KMAP_PGD_2km', IDAD = 2 /
&NAM_NEST_PGD YNEST = 'e1' /
