&NAM_CONFIO  LCDF4=T, LLFIOUT=F, LLFIREAD=F /
&NAM_FILE_NAMES HATMFILE='CPL_19990917.12.spa04', HATMFILETYPE='MESONH',
                 HPGDFILE='KMAP_PGD_8km.neste1',
                 CINIFILE='CPL_19990917.12.2' /
&NAM_REAL_CONF  CEQNSYS='LHE', LSHIFT=.TRUE. /
&NAM_VER_GRID /
&NAM_PREP_SURF_ATM CFILE ='CPL_19990917.12', CFILEPGD='KMAP_PGD_32km.neste1',CFILETYPE = 'MESONH' /
&NAM_BLANK /
