&NAM_CONFIO  LCDF4=T, LLFIOUT=T, LLFIREAD=F /
&NAM_PGDFILE CPGDFILE='KMAP_PGD_2km' /
&NAM_PGD_GRID YINIFILE='KMAP_PGD_8km' YINIFILETYPE='MESONH' /
&NAM_INIFILE_CONF_PROJ IXOR=45, IYOR=70, IXSIZE=40, IYSIZE=40,
             	       IDXRATIO=4, IDYRATIO=4 /
&NAM_COVER     YCOVER='ECOCLIMAP_v2.0', YCOVERFILETYPE='DIRECT' /
&NAM_ZS        YZS='gtopo30',    YZSFILETYPE='DIRECT' /
&NAM_ISBA      YCLAY='CLAY_HWSD_MOY', YCLAYFILETYPE='DIRECT' ,
               YSAND='SAND_HWSD_MOY', YSANDFILETYPE='DIRECT' /
