&NAM_CONFIO  LCDF4=T, LLFIOUT=F, LLFIREAD=F /
&NAM_PGDFILE CPGDFILE='KMAP_PGD_8km' /
&NAM_PGD_SCHEMES  CNATURE='ISBA' , CSEA='SEAFLX', CWATER='WATFLX', CTOWN='TEB'/
&NAM_PGD_GRID YINIFILE='KMAP_PGD_32km' YINIFILETYPE='MESONH' /
&NAM_INIFILE_CONF_PROJ IXOR=70, IYOR=58, IXSIZE=36, IYSIZE=36, IDXRATIO=4, IDYRATIO=4 /
&NAM_COVER     YCOVER='ECOCLIMAP_v2.0', YCOVERFILETYPE='DIRECT' /
&NAM_ZS        YZS='gtopo30',    YZSFILETYPE='DIRECT' /
&NAM_ISBA      YCLAY='CLAY_HWSD_MOY', YCLAYFILETYPE='DIRECT' ,
               YSAND='SAND_HWSD_MOY', YSANDFILETYPE='DIRECT' /
