&NAM_CONFIO  LCDF4=T, LLFIOUT=T, LLFIREAD=F /
&NAM_FILE_NAMES HATMFILE='ecmwf.OD.19990918.00',HATMFILETYPE='GRIBEX',
                HPGDFILE='KMAP_PGD_32km.neste1',
                CINIFILE='CPL_19990918.00' /
&NAM_REAL_CONF CEQNSYS='LHE' /
&NAM_VER_GRID LTHINSHELL=T, NKMAX=50, YZGRID_TYPE='FUNCTN',
              ZDZGRD=60., ZDZTOP=600., ZZMAX_STRGRD=2000.,
              ZSTRGRD=10., ZSTRTOP=7. /
&NAM_BLANK /
