&NAM_GRID2_SPA  /
&NAM_CONFIO  LCDF4=T, LLFIOUT=F, LLFIREAD=F /
&NAM_LUNIT2_SPA  CINIFILE = 'CPL_19990917.12.2',
                 CINIFILEPGD= 'KMAP_PGD_8km.neste1',
                 YDOMAIN  = 'KMAP_PGD_2km.neste1',
                 YSPAFILE = 'CPL_19990917.12.2.spa04' /
&NAM_BLANK /
