&NAM_CONFIO  LCDF4=T,
             LLFIOUT=F,
             LLFIREAD=F /

&NAM_CONFZ
 ! NZ_VERB = 5 , NZ_PROC = 0 , NB_PROCIO_W = 8
/

&NAM_DIMn_PRE NIMAX=200,
              NJMAX=30 /

&NAM_CONF_PRE LCARTESIAN=.TRUE.,
              LBOUSS=.FALSE.,
              CEQNSYS='DUR',
              CZS='DATA',
              CIDEAL='CSTN',
              NVERB=1,
              JPHEXT=1 /

&NAM_CONFn LUSERV=.TRUE./

&NAM_GRID_PRE XLAT0=43.29 /

&NAM_GRIDH_PRE XDELTAX=25.,
               XDELTAY=25.,
               XHMAX=0.,
               XAX=10.E3,
               XAY=10.E3,
               NIZS=16,
               NJZS=16 /

&NAM_LUNITn CINIFILE='MNHFireTest',
            CINIFILEPGD='PGDFireTest'/

&NAM_DYNn_PRE CPRESOPT ='ZRESI' ,
              NITR=4 /

&NAM_LBCn_PRE CLBCX =2*'OPEN',
              CLBCY =2*'OPEN' /

&NAM_VPROF_PRE CTYPELOC='IJGRID',
               NILOC=10,
               NJLOC=15,
               CFUNU='ZZZ',
               CFUNV='ZZZ',
               LGEOSBAL=.FALSE. /

&NAM_VER_GRID LTHINSHELL=.FALSE.,
              NKMAX=80,
              YZGRID_TYPE='FUNCTN',
              ZDZGRD=10.,
              ZDZTOP=200.,
              ZZMAX_STRGRD=500.,
              ZSTRGRD=1.,
              ZSTRTOP=4.,
              LSLEVE=.FALSE. /

&NAM_GRn_PRE       CSURF='EXTE'/

&NAM_PGD_SCHEMES   CNATURE='ISBA' /

&NAM_COVER         XUNIF_COVER(221)=1. /

&NAM_ISBA          XUNIF_CLAY = 0.3,
                   XUNIF_SAND = 0.3 /

&NAM_PREP_ISBA     XHUG_SURF=0.,
                   XHUG_ROOT=0.2,
                   XHUG_DEEP=0.2,
                   XTG_SURF=300.,
                   XTG_ROOT=300.,
                   XTG_DEEP=300. /


CSTN
2000 01 01 0.
3
300.
101700.
0. 100. 20000.
2. 2. 2.
0. 0. 0.
20. 20. 20.
0.01 0.01
ZSDATA
0.0,0.0,0.0,0.0,0.0,0.0,0.0,0.0,0.0,0.0,0.0,0.0,0.0,0.0,0.0,0.0,0.0,0.0,0.0,0.0,14.433756729740644,28.867513459481287,43.30127018922193,57.735026918962575,72.16878364870323,86.60254037844388,101.03629710818453,115.47005383792518,129.90381056766583,144.33756729740648,158.77132402714713,173.20508075688778,187.63883748662843,202.07259421636908,216.50635094610973,230.94010767585038,245.37386440559104,259.80762113533166,274.2413778650723,288.67513459481296,303.1088913245536,317.54264805429426,331.9764047840349,346.41016151377556,360.8439182435162,375.27767497325686,389.7114317029975,404.14518843273817,418.5789451624788,433.01270189221947,447.4464586219601,450.0,450.0,450.0,450.0,450.0,450.0,450.0,450.0,450.0,450.0,450.0,450.0,450.0,450.0,450.0,450.0,450.0,450.0,450.0,450.0,450.0,450.0,450.0,450.0,450.0,450.0,450.0,450.0,450.0,450.0,450.0,450.0,450.0,450.0,450.0,450.0,450.0,450.0,450.0,450.0,450.0,450.0,450.0,450.0,450.0,450.0,450.0,450.0,450.0,435.56624327025935,421.1324865405187,406.69872981077805,392.2649730810374,377.83121635129675,363.3974596215561,348.96370289181544,334.5299461620748,320.09618943233414,305.6624327025935,291.22867597285284,276.7949192431122,262.36116251337154,247.9274057836309,233.49364905389024,219.0598923241496,204.62613559440894,190.19237886466829,175.75862213492763,161.32486540518698,146.89110867544633,132.45735194570568,118.02359521596503,103.58983848622438,89.15608175648373,74.72232502674308,60.288568297002435,45.85481156726179,31.421054837521147,16.987298107780504,2.55354137803986,0.0,0.0,0.0,0.0,0.0,0.0,0.0,0.0,0.0,0.0,0.0,0.0,0.0,0.0,0.0,0.0,0.0,0.0,0.0,0.0,0.0,0.0,0.0,0.0,0.0,0.0,0.0,0.0,0.0,0.0,0.0,0.0,0.0,0.0,0.0,0.0,0.0,0.0,0.0,0.0,0.0,0.0,0.0,0.0,0.0,0.0,0.0,0.0,0.0,0.0,0.0,0.0,0.0,0.0,0.0,0.0,0.0,0.0,0.0,0.0,0.0,0.0,0.0,0.0,0.0,0.0,0.0,0.0,0.0
0.0,0.0,0.0,0.0,0.0,0.0,0.0,0.0,0.0,0.0,0.0,0.0,0.0,0.0,0.0,0.0,0.0,0.0,0.0,0.0,14.433756729740644,28.867513459481287,43.30127018922193,57.735026918962575,72.16878364870323,86.60254037844388,101.03629710818453,115.47005383792518,129.90381056766583,144.33756729740648,158.77132402714713,173.20508075688778,187.63883748662843,202.07259421636908,216.50635094610973,230.94010767585038,245.37386440559104,259.80762113533166,274.2413778650723,288.67513459481296,303.1088913245536,317.54264805429426,331.9764047840349,346.41016151377556,360.8439182435162,375.27767497325686,389.7114317029975,404.14518843273817,418.5789451624788,433.01270189221947,447.4464586219601,450.0,450.0,450.0,450.0,450.0,450.0,450.0,450.0,450.0,450.0,450.0,450.0,450.0,450.0,450.0,450.0,450.0,450.0,450.0,450.0,450.0,450.0,450.0,450.0,450.0,450.0,450.0,450.0,450.0,450.0,450.0,450.0,450.0,450.0,450.0,450.0,450.0,450.0,450.0,450.0,450.0,450.0,450.0,450.0,450.0,450.0,450.0,450.0,450.0,435.56624327025935,421.1324865405187,406.69872981077805,392.2649730810374,377.83121635129675,363.3974596215561,348.96370289181544,334.5299461620748,320.09618943233414,305.6624327025935,291.22867597285284,276.7949192431122,262.36116251337154,247.9274057836309,233.49364905389024,219.0598923241496,204.62613559440894,190.19237886466829,175.75862213492763,161.32486540518698,146.89110867544633,132.45735194570568,118.02359521596503,103.58983848622438,89.15608175648373,74.72232502674308,60.288568297002435,45.85481156726179,31.421054837521147,16.987298107780504,2.55354137803986,0.0,0.0,0.0,0.0,0.0,0.0,0.0,0.0,0.0,0.0,0.0,0.0,0.0,0.0,0.0,0.0,0.0,0.0,0.0,0.0,0.0,0.0,0.0,0.0,0.0,0.0,0.0,0.0,0.0,0.0,0.0,0.0,0.0,0.0,0.0,0.0,0.0,0.0,0.0,0.0,0.0,0.0,0.0,0.0,0.0,0.0,0.0,0.0,0.0,0.0,0.0,0.0,0.0,0.0,0.0,0.0,0.0,0.0,0.0,0.0,0.0,0.0,0.0,0.0,0.0,0.0,0.0,0.0,0.0
0.0,0.0,0.0,0.0,0.0,0.0,0.0,0.0,0.0,0.0,0.0,0.0,0.0,0.0,0.0,0.0,0.0,0.0,0.0,0.0,14.433756729740644,28.867513459481287,43.30127018922193,57.735026918962575,72.16878364870323,86.60254037844388,101.03629710818453,115.47005383792518,129.90381056766583,144.33756729740648,158.77132402714713,173.20508075688778,187.63883748662843,202.07259421636908,216.50635094610973,230.94010767585038,245.37386440559104,259.80762113533166,274.2413778650723,288.67513459481296,303.1088913245536,317.54264805429426,331.9764047840349,346.41016151377556,360.8439182435162,375.27767497325686,389.7114317029975,404.14518843273817,418.5789451624788,433.01270189221947,447.4464586219601,450.0,450.0,450.0,450.0,450.0,450.0,450.0,450.0,450.0,450.0,450.0,450.0,450.0,450.0,450.0,450.0,450.0,450.0,450.0,450.0,450.0,450.0,450.0,450.0,450.0,450.0,450.0,450.0,450.0,450.0,450.0,450.0,450.0,450.0,450.0,450.0,450.0,450.0,450.0,450.0,450.0,450.0,450.0,450.0,450.0,450.0,450.0,450.0,450.0,435.56624327025935,421.1324865405187,406.69872981077805,392.2649730810374,377.83121635129675,363.3974596215561,348.96370289181544,334.5299461620748,320.09618943233414,305.6624327025935,291.22867597285284,276.7949192431122,262.36116251337154,247.9274057836309,233.49364905389024,219.0598923241496,204.62613559440894,190.19237886466829,175.75862213492763,161.32486540518698,146.89110867544633,132.45735194570568,118.02359521596503,103.58983848622438,89.15608175648373,74.72232502674308,60.288568297002435,45.85481156726179,31.421054837521147,16.987298107780504,2.55354137803986,0.0,0.0,0.0,0.0,0.0,0.0,0.0,0.0,0.0,0.0,0.0,0.0,0.0,0.0,0.0,0.0,0.0,0.0,0.0,0.0,0.0,0.0,0.0,0.0,0.0,0.0,0.0,0.0,0.0,0.0,0.0,0.0,0.0,0.0,0.0,0.0,0.0,0.0,0.0,0.0,0.0,0.0,0.0,0.0,0.0,0.0,0.0,0.0,0.0,0.0,0.0,0.0,0.0,0.0,0.0,0.0,0.0,0.0,0.0,0.0,0.0,0.0,0.0,0.0,0.0,0.0,0.0,0.0,0.0
0.0,0.0,0.0,0.0,0.0,0.0,0.0,0.0,0.0,0.0,0.0,0.0,0.0,0.0,0.0,0.0,0.0,0.0,0.0,0.0,14.433756729740644,28.867513459481287,43.30127018922193,57.735026918962575,72.16878364870323,86.60254037844388,101.03629710818453,115.47005383792518,129.90381056766583,144.33756729740648,158.77132402714713,173.20508075688778,187.63883748662843,202.07259421636908,216.50635094610973,230.94010767585038,245.37386440559104,259.80762113533166,274.2413778650723,288.67513459481296,303.1088913245536,317.54264805429426,331.9764047840349,346.41016151377556,360.8439182435162,375.27767497325686,389.7114317029975,404.14518843273817,418.5789451624788,433.01270189221947,447.4464586219601,450.0,450.0,450.0,450.0,450.0,450.0,450.0,450.0,450.0,450.0,450.0,450.0,450.0,450.0,450.0,450.0,450.0,450.0,450.0,450.0,450.0,450.0,450.0,450.0,450.0,450.0,450.0,450.0,450.0,450.0,450.0,450.0,450.0,450.0,450.0,450.0,450.0,450.0,450.0,450.0,450.0,450.0,450.0,450.0,450.0,450.0,450.0,450.0,450.0,435.56624327025935,421.1324865405187,406.69872981077805,392.2649730810374,377.83121635129675,363.3974596215561,348.96370289181544,334.5299461620748,320.09618943233414,305.6624327025935,291.22867597285284,276.7949192431122,262.36116251337154,247.9274057836309,233.49364905389024,219.0598923241496,204.62613559440894,190.19237886466829,175.75862213492763,161.32486540518698,146.89110867544633,132.45735194570568,118.02359521596503,103.58983848622438,89.15608175648373,74.72232502674308,60.288568297002435,45.85481156726179,31.421054837521147,16.987298107780504,2.55354137803986,0.0,0.0,0.0,0.0,0.0,0.0,0.0,0.0,0.0,0.0,0.0,0.0,0.0,0.0,0.0,0.0,0.0,0.0,0.0,0.0,0.0,0.0,0.0,0.0,0.0,0.0,0.0,0.0,0.0,0.0,0.0,0.0,0.0,0.0,0.0,0.0,0.0,0.0,0.0,0.0,0.0,0.0,0.0,0.0,0.0,0.0,0.0,0.0,0.0,0.0,0.0,0.0,0.0,0.0,0.0,0.0,0.0,0.0,0.0,0.0,0.0,0.0,0.0,0.0,0.0,0.0,0.0,0.0,0.0
0.0,0.0,0.0,0.0,0.0,0.0,0.0,0.0,0.0,0.0,0.0,0.0,0.0,0.0,0.0,0.0,0.0,0.0,0.0,0.0,14.433756729740644,28.867513459481287,43.30127018922193,57.735026918962575,72.16878364870323,86.60254037844388,101.03629710818453,115.47005383792518,129.90381056766583,144.33756729740648,158.77132402714713,173.20508075688778,187.63883748662843,202.07259421636908,216.50635094610973,230.94010767585038,245.37386440559104,259.80762113533166,274.2413778650723,288.67513459481296,303.1088913245536,317.54264805429426,331.9764047840349,346.41016151377556,360.8439182435162,375.27767497325686,389.7114317029975,404.14518843273817,418.5789451624788,433.01270189221947,447.4464586219601,450.0,450.0,450.0,450.0,450.0,450.0,450.0,450.0,450.0,450.0,450.0,450.0,450.0,450.0,450.0,450.0,450.0,450.0,450.0,450.0,450.0,450.0,450.0,450.0,450.0,450.0,450.0,450.0,450.0,450.0,450.0,450.0,450.0,450.0,450.0,450.0,450.0,450.0,450.0,450.0,450.0,450.0,450.0,450.0,450.0,450.0,450.0,450.0,450.0,435.56624327025935,421.1324865405187,406.69872981077805,392.2649730810374,377.83121635129675,363.3974596215561,348.96370289181544,334.5299461620748,320.09618943233414,305.6624327025935,291.22867597285284,276.7949192431122,262.36116251337154,247.9274057836309,233.49364905389024,219.0598923241496,204.62613559440894,190.19237886466829,175.75862213492763,161.32486540518698,146.89110867544633,132.45735194570568,118.02359521596503,103.58983848622438,89.15608175648373,74.72232502674308,60.288568297002435,45.85481156726179,31.421054837521147,16.987298107780504,2.55354137803986,0.0,0.0,0.0,0.0,0.0,0.0,0.0,0.0,0.0,0.0,0.0,0.0,0.0,0.0,0.0,0.0,0.0,0.0,0.0,0.0,0.0,0.0,0.0,0.0,0.0,0.0,0.0,0.0,0.0,0.0,0.0,0.0,0.0,0.0,0.0,0.0,0.0,0.0,0.0,0.0,0.0,0.0,0.0,0.0,0.0,0.0,0.0,0.0,0.0,0.0,0.0,0.0,0.0,0.0,0.0,0.0,0.0,0.0,0.0,0.0,0.0,0.0,0.0,0.0,0.0,0.0,0.0,0.0,0.0
0.0,0.0,0.0,0.0,0.0,0.0,0.0,0.0,0.0,0.0,0.0,0.0,0.0,0.0,0.0,0.0,0.0,0.0,0.0,0.0,14.433756729740644,28.867513459481287,43.30127018922193,57.735026918962575,72.16878364870323,86.60254037844388,101.03629710818453,115.47005383792518,129.90381056766583,144.33756729740648,158.77132402714713,173.20508075688778,187.63883748662843,202.07259421636908,216.50635094610973,230.94010767585038,245.37386440559104,259.80762113533166,274.2413778650723,288.67513459481296,303.1088913245536,317.54264805429426,331.9764047840349,346.41016151377556,360.8439182435162,375.27767497325686,389.7114317029975,404.14518843273817,418.5789451624788,433.01270189221947,447.4464586219601,450.0,450.0,450.0,450.0,450.0,450.0,450.0,450.0,450.0,450.0,450.0,450.0,450.0,450.0,450.0,450.0,450.0,450.0,450.0,450.0,450.0,450.0,450.0,450.0,450.0,450.0,450.0,450.0,450.0,450.0,450.0,450.0,450.0,450.0,450.0,450.0,450.0,450.0,450.0,450.0,450.0,450.0,450.0,450.0,450.0,450.0,450.0,450.0,450.0,435.56624327025935,421.1324865405187,406.69872981077805,392.2649730810374,377.83121635129675,363.3974596215561,348.96370289181544,334.5299461620748,320.09618943233414,305.6624327025935,291.22867597285284,276.7949192431122,262.36116251337154,247.9274057836309,233.49364905389024,219.0598923241496,204.62613559440894,190.19237886466829,175.75862213492763,161.32486540518698,146.89110867544633,132.45735194570568,118.02359521596503,103.58983848622438,89.15608175648373,74.72232502674308,60.288568297002435,45.85481156726179,31.421054837521147,16.987298107780504,2.55354137803986,0.0,0.0,0.0,0.0,0.0,0.0,0.0,0.0,0.0,0.0,0.0,0.0,0.0,0.0,0.0,0.0,0.0,0.0,0.0,0.0,0.0,0.0,0.0,0.0,0.0,0.0,0.0,0.0,0.0,0.0,0.0,0.0,0.0,0.0,0.0,0.0,0.0,0.0,0.0,0.0,0.0,0.0,0.0,0.0,0.0,0.0,0.0,0.0,0.0,0.0,0.0,0.0,0.0,0.0,0.0,0.0,0.0,0.0,0.0,0.0,0.0,0.0,0.0,0.0,0.0,0.0,0.0,0.0,0.0
0.0,0.0,0.0,0.0,0.0,0.0,0.0,0.0,0.0,0.0,0.0,0.0,0.0,0.0,0.0,0.0,0.0,0.0,0.0,0.0,14.433756729740644,28.867513459481287,43.30127018922193,57.735026918962575,72.16878364870323,86.60254037844388,101.03629710818453,115.47005383792518,129.90381056766583,144.33756729740648,158.77132402714713,173.20508075688778,187.63883748662843,202.07259421636908,216.50635094610973,230.94010767585038,245.37386440559104,259.80762113533166,274.2413778650723,288.67513459481296,303.1088913245536,317.54264805429426,331.9764047840349,346.41016151377556,360.8439182435162,375.27767497325686,389.7114317029975,404.14518843273817,418.5789451624788,433.01270189221947,447.4464586219601,450.0,450.0,450.0,450.0,450.0,450.0,450.0,450.0,450.0,450.0,450.0,450.0,450.0,450.0,450.0,450.0,450.0,450.0,450.0,450.0,450.0,450.0,450.0,450.0,450.0,450.0,450.0,450.0,450.0,450.0,450.0,450.0,450.0,450.0,450.0,450.0,450.0,450.0,450.0,450.0,450.0,450.0,450.0,450.0,450.0,450.0,450.0,450.0,450.0,435.56624327025935,421.1324865405187,406.69872981077805,392.2649730810374,377.83121635129675,363.3974596215561,348.96370289181544,334.5299461620748,320.09618943233414,305.6624327025935,291.22867597285284,276.7949192431122,262.36116251337154,247.9274057836309,233.49364905389024,219.0598923241496,204.62613559440894,190.19237886466829,175.75862213492763,161.32486540518698,146.89110867544633,132.45735194570568,118.02359521596503,103.58983848622438,89.15608175648373,74.72232502674308,60.288568297002435,45.85481156726179,31.421054837521147,16.987298107780504,2.55354137803986,0.0,0.0,0.0,0.0,0.0,0.0,0.0,0.0,0.0,0.0,0.0,0.0,0.0,0.0,0.0,0.0,0.0,0.0,0.0,0.0,0.0,0.0,0.0,0.0,0.0,0.0,0.0,0.0,0.0,0.0,0.0,0.0,0.0,0.0,0.0,0.0,0.0,0.0,0.0,0.0,0.0,0.0,0.0,0.0,0.0,0.0,0.0,0.0,0.0,0.0,0.0,0.0,0.0,0.0,0.0,0.0,0.0,0.0,0.0,0.0,0.0,0.0,0.0,0.0,0.0,0.0,0.0,0.0,0.0
0.0,0.0,0.0,0.0,0.0,0.0,0.0,0.0,0.0,0.0,0.0,0.0,0.0,0.0,0.0,0.0,0.0,0.0,0.0,0.0,14.433756729740644,28.867513459481287,43.30127018922193,57.735026918962575,72.16878364870323,86.60254037844388,101.03629710818453,115.47005383792518,129.90381056766583,144.33756729740648,158.77132402714713,173.20508075688778,187.63883748662843,202.07259421636908,216.50635094610973,230.94010767585038,245.37386440559104,259.80762113533166,274.2413778650723,288.67513459481296,303.1088913245536,317.54264805429426,331.9764047840349,346.41016151377556,360.8439182435162,375.27767497325686,389.7114317029975,404.14518843273817,418.5789451624788,433.01270189221947,447.4464586219601,450.0,450.0,450.0,450.0,450.0,450.0,450.0,450.0,450.0,450.0,450.0,450.0,450.0,450.0,450.0,450.0,450.0,450.0,450.0,450.0,450.0,450.0,450.0,450.0,450.0,450.0,450.0,450.0,450.0,450.0,450.0,450.0,450.0,450.0,450.0,450.0,450.0,450.0,450.0,450.0,450.0,450.0,450.0,450.0,450.0,450.0,450.0,450.0,450.0,435.56624327025935,421.1324865405187,406.69872981077805,392.2649730810374,377.83121635129675,363.3974596215561,348.96370289181544,334.5299461620748,320.09618943233414,305.6624327025935,291.22867597285284,276.7949192431122,262.36116251337154,247.9274057836309,233.49364905389024,219.0598923241496,204.62613559440894,190.19237886466829,175.75862213492763,161.32486540518698,146.89110867544633,132.45735194570568,118.02359521596503,103.58983848622438,89.15608175648373,74.72232502674308,60.288568297002435,45.85481156726179,31.421054837521147,16.987298107780504,2.55354137803986,0.0,0.0,0.0,0.0,0.0,0.0,0.0,0.0,0.0,0.0,0.0,0.0,0.0,0.0,0.0,0.0,0.0,0.0,0.0,0.0,0.0,0.0,0.0,0.0,0.0,0.0,0.0,0.0,0.0,0.0,0.0,0.0,0.0,0.0,0.0,0.0,0.0,0.0,0.0,0.0,0.0,0.0,0.0,0.0,0.0,0.0,0.0,0.0,0.0,0.0,0.0,0.0,0.0,0.0,0.0,0.0,0.0,0.0,0.0,0.0,0.0,0.0,0.0,0.0,0.0,0.0,0.0,0.0,0.0
0.0,0.0,0.0,0.0,0.0,0.0,0.0,0.0,0.0,0.0,0.0,0.0,0.0,0.0,0.0,0.0,0.0,0.0,0.0,0.0,14.433756729740644,28.867513459481287,43.30127018922193,57.735026918962575,72.16878364870323,86.60254037844388,101.03629710818453,115.47005383792518,129.90381056766583,144.33756729740648,158.77132402714713,173.20508075688778,187.63883748662843,202.07259421636908,216.50635094610973,230.94010767585038,245.37386440559104,259.80762113533166,274.2413778650723,288.67513459481296,303.1088913245536,317.54264805429426,331.9764047840349,346.41016151377556,360.8439182435162,375.27767497325686,389.7114317029975,404.14518843273817,418.5789451624788,433.01270189221947,447.4464586219601,450.0,450.0,450.0,450.0,450.0,450.0,450.0,450.0,450.0,450.0,450.0,450.0,450.0,450.0,450.0,450.0,450.0,450.0,450.0,450.0,450.0,450.0,450.0,450.0,450.0,450.0,450.0,450.0,450.0,450.0,450.0,450.0,450.0,450.0,450.0,450.0,450.0,450.0,450.0,450.0,450.0,450.0,450.0,450.0,450.0,450.0,450.0,450.0,450.0,435.56624327025935,421.1324865405187,406.69872981077805,392.2649730810374,377.83121635129675,363.3974596215561,348.96370289181544,334.5299461620748,320.09618943233414,305.6624327025935,291.22867597285284,276.7949192431122,262.36116251337154,247.9274057836309,233.49364905389024,219.0598923241496,204.62613559440894,190.19237886466829,175.75862213492763,161.32486540518698,146.89110867544633,132.45735194570568,118.02359521596503,103.58983848622438,89.15608175648373,74.72232502674308,60.288568297002435,45.85481156726179,31.421054837521147,16.987298107780504,2.55354137803986,0.0,0.0,0.0,0.0,0.0,0.0,0.0,0.0,0.0,0.0,0.0,0.0,0.0,0.0,0.0,0.0,0.0,0.0,0.0,0.0,0.0,0.0,0.0,0.0,0.0,0.0,0.0,0.0,0.0,0.0,0.0,0.0,0.0,0.0,0.0,0.0,0.0,0.0,0.0,0.0,0.0,0.0,0.0,0.0,0.0,0.0,0.0,0.0,0.0,0.0,0.0,0.0,0.0,0.0,0.0,0.0,0.0,0.0,0.0,0.0,0.0,0.0,0.0,0.0,0.0,0.0,0.0,0.0,0.0
0.0,0.0,0.0,0.0,0.0,0.0,0.0,0.0,0.0,0.0,0.0,0.0,0.0,0.0,0.0,0.0,0.0,0.0,0.0,0.0,14.433756729740644,28.867513459481287,43.30127018922193,57.735026918962575,72.16878364870323,86.60254037844388,101.03629710818453,115.47005383792518,129.90381056766583,144.33756729740648,158.77132402714713,173.20508075688778,187.63883748662843,202.07259421636908,216.50635094610973,230.94010767585038,245.37386440559104,259.80762113533166,274.2413778650723,288.67513459481296,303.1088913245536,317.54264805429426,331.9764047840349,346.41016151377556,360.8439182435162,375.27767497325686,389.7114317029975,404.14518843273817,418.5789451624788,433.01270189221947,447.4464586219601,450.0,450.0,450.0,450.0,450.0,450.0,450.0,450.0,450.0,450.0,450.0,450.0,450.0,450.0,450.0,450.0,450.0,450.0,450.0,450.0,450.0,450.0,450.0,450.0,450.0,450.0,450.0,450.0,450.0,450.0,450.0,450.0,450.0,450.0,450.0,450.0,450.0,450.0,450.0,450.0,450.0,450.0,450.0,450.0,450.0,450.0,450.0,450.0,450.0,435.56624327025935,421.1324865405187,406.69872981077805,392.2649730810374,377.83121635129675,363.3974596215561,348.96370289181544,334.5299461620748,320.09618943233414,305.6624327025935,291.22867597285284,276.7949192431122,262.36116251337154,247.9274057836309,233.49364905389024,219.0598923241496,204.62613559440894,190.19237886466829,175.75862213492763,161.32486540518698,146.89110867544633,132.45735194570568,118.02359521596503,103.58983848622438,89.15608175648373,74.72232502674308,60.288568297002435,45.85481156726179,31.421054837521147,16.987298107780504,2.55354137803986,0.0,0.0,0.0,0.0,0.0,0.0,0.0,0.0,0.0,0.0,0.0,0.0,0.0,0.0,0.0,0.0,0.0,0.0,0.0,0.0,0.0,0.0,0.0,0.0,0.0,0.0,0.0,0.0,0.0,0.0,0.0,0.0,0.0,0.0,0.0,0.0,0.0,0.0,0.0,0.0,0.0,0.0,0.0,0.0,0.0,0.0,0.0,0.0,0.0,0.0,0.0,0.0,0.0,0.0,0.0,0.0,0.0,0.0,0.0,0.0,0.0,0.0,0.0,0.0,0.0,0.0,0.0,0.0,0.0
0.0,0.0,0.0,0.0,0.0,0.0,0.0,0.0,0.0,0.0,0.0,0.0,0.0,0.0,0.0,0.0,0.0,0.0,0.0,0.0,14.433756729740644,28.867513459481287,43.30127018922193,57.735026918962575,72.16878364870323,86.60254037844388,101.03629710818453,115.47005383792518,129.90381056766583,144.33756729740648,158.77132402714713,173.20508075688778,187.63883748662843,202.07259421636908,216.50635094610973,230.94010767585038,245.37386440559104,259.80762113533166,274.2413778650723,288.67513459481296,303.1088913245536,317.54264805429426,331.9764047840349,346.41016151377556,360.8439182435162,375.27767497325686,389.7114317029975,404.14518843273817,418.5789451624788,433.01270189221947,447.4464586219601,450.0,450.0,450.0,450.0,450.0,450.0,450.0,450.0,450.0,450.0,450.0,450.0,450.0,450.0,450.0,450.0,450.0,450.0,450.0,450.0,450.0,450.0,450.0,450.0,450.0,450.0,450.0,450.0,450.0,450.0,450.0,450.0,450.0,450.0,450.0,450.0,450.0,450.0,450.0,450.0,450.0,450.0,450.0,450.0,450.0,450.0,450.0,450.0,450.0,435.56624327025935,421.1324865405187,406.69872981077805,392.2649730810374,377.83121635129675,363.3974596215561,348.96370289181544,334.5299461620748,320.09618943233414,305.6624327025935,291.22867597285284,276.7949192431122,262.36116251337154,247.9274057836309,233.49364905389024,219.0598923241496,204.62613559440894,190.19237886466829,175.75862213492763,161.32486540518698,146.89110867544633,132.45735194570568,118.02359521596503,103.58983848622438,89.15608175648373,74.72232502674308,60.288568297002435,45.85481156726179,31.421054837521147,16.987298107780504,2.55354137803986,0.0,0.0,0.0,0.0,0.0,0.0,0.0,0.0,0.0,0.0,0.0,0.0,0.0,0.0,0.0,0.0,0.0,0.0,0.0,0.0,0.0,0.0,0.0,0.0,0.0,0.0,0.0,0.0,0.0,0.0,0.0,0.0,0.0,0.0,0.0,0.0,0.0,0.0,0.0,0.0,0.0,0.0,0.0,0.0,0.0,0.0,0.0,0.0,0.0,0.0,0.0,0.0,0.0,0.0,0.0,0.0,0.0,0.0,0.0,0.0,0.0,0.0,0.0,0.0,0.0,0.0,0.0,0.0,0.0
0.0,0.0,0.0,0.0,0.0,0.0,0.0,0.0,0.0,0.0,0.0,0.0,0.0,0.0,0.0,0.0,0.0,0.0,0.0,0.0,14.433756729740644,28.867513459481287,43.30127018922193,57.735026918962575,72.16878364870323,86.60254037844388,101.03629710818453,115.47005383792518,129.90381056766583,144.33756729740648,158.77132402714713,173.20508075688778,187.63883748662843,202.07259421636908,216.50635094610973,230.94010767585038,245.37386440559104,259.80762113533166,274.2413778650723,288.67513459481296,303.1088913245536,317.54264805429426,331.9764047840349,346.41016151377556,360.8439182435162,375.27767497325686,389.7114317029975,404.14518843273817,418.5789451624788,433.01270189221947,447.4464586219601,450.0,450.0,450.0,450.0,450.0,450.0,450.0,450.0,450.0,450.0,450.0,450.0,450.0,450.0,450.0,450.0,450.0,450.0,450.0,450.0,450.0,450.0,450.0,450.0,450.0,450.0,450.0,450.0,450.0,450.0,450.0,450.0,450.0,450.0,450.0,450.0,450.0,450.0,450.0,450.0,450.0,450.0,450.0,450.0,450.0,450.0,450.0,450.0,450.0,435.56624327025935,421.1324865405187,406.69872981077805,392.2649730810374,377.83121635129675,363.3974596215561,348.96370289181544,334.5299461620748,320.09618943233414,305.6624327025935,291.22867597285284,276.7949192431122,262.36116251337154,247.9274057836309,233.49364905389024,219.0598923241496,204.62613559440894,190.19237886466829,175.75862213492763,161.32486540518698,146.89110867544633,132.45735194570568,118.02359521596503,103.58983848622438,89.15608175648373,74.72232502674308,60.288568297002435,45.85481156726179,31.421054837521147,16.987298107780504,2.55354137803986,0.0,0.0,0.0,0.0,0.0,0.0,0.0,0.0,0.0,0.0,0.0,0.0,0.0,0.0,0.0,0.0,0.0,0.0,0.0,0.0,0.0,0.0,0.0,0.0,0.0,0.0,0.0,0.0,0.0,0.0,0.0,0.0,0.0,0.0,0.0,0.0,0.0,0.0,0.0,0.0,0.0,0.0,0.0,0.0,0.0,0.0,0.0,0.0,0.0,0.0,0.0,0.0,0.0,0.0,0.0,0.0,0.0,0.0,0.0,0.0,0.0,0.0,0.0,0.0,0.0,0.0,0.0,0.0,0.0
0.0,0.0,0.0,0.0,0.0,0.0,0.0,0.0,0.0,0.0,0.0,0.0,0.0,0.0,0.0,0.0,0.0,0.0,0.0,0.0,14.433756729740644,28.867513459481287,43.30127018922193,57.735026918962575,72.16878364870323,86.60254037844388,101.03629710818453,115.47005383792518,129.90381056766583,144.33756729740648,158.77132402714713,173.20508075688778,187.63883748662843,202.07259421636908,216.50635094610973,230.94010767585038,245.37386440559104,259.80762113533166,274.2413778650723,288.67513459481296,303.1088913245536,317.54264805429426,331.9764047840349,346.41016151377556,360.8439182435162,375.27767497325686,389.7114317029975,404.14518843273817,418.5789451624788,433.01270189221947,447.4464586219601,450.0,450.0,450.0,450.0,450.0,450.0,450.0,450.0,450.0,450.0,450.0,450.0,450.0,450.0,450.0,450.0,450.0,450.0,450.0,450.0,450.0,450.0,450.0,450.0,450.0,450.0,450.0,450.0,450.0,450.0,450.0,450.0,450.0,450.0,450.0,450.0,450.0,450.0,450.0,450.0,450.0,450.0,450.0,450.0,450.0,450.0,450.0,450.0,450.0,435.56624327025935,421.1324865405187,406.69872981077805,392.2649730810374,377.83121635129675,363.3974596215561,348.96370289181544,334.5299461620748,320.09618943233414,305.6624327025935,291.22867597285284,276.7949192431122,262.36116251337154,247.9274057836309,233.49364905389024,219.0598923241496,204.62613559440894,190.19237886466829,175.75862213492763,161.32486540518698,146.89110867544633,132.45735194570568,118.02359521596503,103.58983848622438,89.15608175648373,74.72232502674308,60.288568297002435,45.85481156726179,31.421054837521147,16.987298107780504,2.55354137803986,0.0,0.0,0.0,0.0,0.0,0.0,0.0,0.0,0.0,0.0,0.0,0.0,0.0,0.0,0.0,0.0,0.0,0.0,0.0,0.0,0.0,0.0,0.0,0.0,0.0,0.0,0.0,0.0,0.0,0.0,0.0,0.0,0.0,0.0,0.0,0.0,0.0,0.0,0.0,0.0,0.0,0.0,0.0,0.0,0.0,0.0,0.0,0.0,0.0,0.0,0.0,0.0,0.0,0.0,0.0,0.0,0.0,0.0,0.0,0.0,0.0,0.0,0.0,0.0,0.0,0.0,0.0,0.0,0.0
0.0,0.0,0.0,0.0,0.0,0.0,0.0,0.0,0.0,0.0,0.0,0.0,0.0,0.0,0.0,0.0,0.0,0.0,0.0,0.0,14.433756729740644,28.867513459481287,43.30127018922193,57.735026918962575,72.16878364870323,86.60254037844388,101.03629710818453,115.47005383792518,129.90381056766583,144.33756729740648,158.77132402714713,173.20508075688778,187.63883748662843,202.07259421636908,216.50635094610973,230.94010767585038,245.37386440559104,259.80762113533166,274.2413778650723,288.67513459481296,303.1088913245536,317.54264805429426,331.9764047840349,346.41016151377556,360.8439182435162,375.27767497325686,389.7114317029975,404.14518843273817,418.5789451624788,433.01270189221947,447.4464586219601,450.0,450.0,450.0,450.0,450.0,450.0,450.0,450.0,450.0,450.0,450.0,450.0,450.0,450.0,450.0,450.0,450.0,450.0,450.0,450.0,450.0,450.0,450.0,450.0,450.0,450.0,450.0,450.0,450.0,450.0,450.0,450.0,450.0,450.0,450.0,450.0,450.0,450.0,450.0,450.0,450.0,450.0,450.0,450.0,450.0,450.0,450.0,450.0,450.0,435.56624327025935,421.1324865405187,406.69872981077805,392.2649730810374,377.83121635129675,363.3974596215561,348.96370289181544,334.5299461620748,320.09618943233414,305.6624327025935,291.22867597285284,276.7949192431122,262.36116251337154,247.9274057836309,233.49364905389024,219.0598923241496,204.62613559440894,190.19237886466829,175.75862213492763,161.32486540518698,146.89110867544633,132.45735194570568,118.02359521596503,103.58983848622438,89.15608175648373,74.72232502674308,60.288568297002435,45.85481156726179,31.421054837521147,16.987298107780504,2.55354137803986,0.0,0.0,0.0,0.0,0.0,0.0,0.0,0.0,0.0,0.0,0.0,0.0,0.0,0.0,0.0,0.0,0.0,0.0,0.0,0.0,0.0,0.0,0.0,0.0,0.0,0.0,0.0,0.0,0.0,0.0,0.0,0.0,0.0,0.0,0.0,0.0,0.0,0.0,0.0,0.0,0.0,0.0,0.0,0.0,0.0,0.0,0.0,0.0,0.0,0.0,0.0,0.0,0.0,0.0,0.0,0.0,0.0,0.0,0.0,0.0,0.0,0.0,0.0,0.0,0.0,0.0,0.0,0.0,0.0
0.0,0.0,0.0,0.0,0.0,0.0,0.0,0.0,0.0,0.0,0.0,0.0,0.0,0.0,0.0,0.0,0.0,0.0,0.0,0.0,14.433756729740644,28.867513459481287,43.30127018922193,57.735026918962575,72.16878364870323,86.60254037844388,101.03629710818453,115.47005383792518,129.90381056766583,144.33756729740648,158.77132402714713,173.20508075688778,187.63883748662843,202.07259421636908,216.50635094610973,230.94010767585038,245.37386440559104,259.80762113533166,274.2413778650723,288.67513459481296,303.1088913245536,317.54264805429426,331.9764047840349,346.41016151377556,360.8439182435162,375.27767497325686,389.7114317029975,404.14518843273817,418.5789451624788,433.01270189221947,447.4464586219601,450.0,450.0,450.0,450.0,450.0,450.0,450.0,450.0,450.0,450.0,450.0,450.0,450.0,450.0,450.0,450.0,450.0,450.0,450.0,450.0,450.0,450.0,450.0,450.0,450.0,450.0,450.0,450.0,450.0,450.0,450.0,450.0,450.0,450.0,450.0,450.0,450.0,450.0,450.0,450.0,450.0,450.0,450.0,450.0,450.0,450.0,450.0,450.0,450.0,435.56624327025935,421.1324865405187,406.69872981077805,392.2649730810374,377.83121635129675,363.3974596215561,348.96370289181544,334.5299461620748,320.09618943233414,305.6624327025935,291.22867597285284,276.7949192431122,262.36116251337154,247.9274057836309,233.49364905389024,219.0598923241496,204.62613559440894,190.19237886466829,175.75862213492763,161.32486540518698,146.89110867544633,132.45735194570568,118.02359521596503,103.58983848622438,89.15608175648373,74.72232502674308,60.288568297002435,45.85481156726179,31.421054837521147,16.987298107780504,2.55354137803986,0.0,0.0,0.0,0.0,0.0,0.0,0.0,0.0,0.0,0.0,0.0,0.0,0.0,0.0,0.0,0.0,0.0,0.0,0.0,0.0,0.0,0.0,0.0,0.0,0.0,0.0,0.0,0.0,0.0,0.0,0.0,0.0,0.0,0.0,0.0,0.0,0.0,0.0,0.0,0.0,0.0,0.0,0.0,0.0,0.0,0.0,0.0,0.0,0.0,0.0,0.0,0.0,0.0,0.0,0.0,0.0,0.0,0.0,0.0,0.0,0.0,0.0,0.0,0.0,0.0,0.0,0.0,0.0,0.0