&NAM_CONFIO  LCDF4=T, LLFIOUT=T, LLFIREAD=F /
&NAM_PGDFILE CPGDFILE='16JAN98_9km' /
&NAM_PGD_GRID YINIFILE='16JAN98_36km' YFILETYPE='MESONH' /
&NAM_INIFILE_CONF_PROJ IXOR=10, IYOR=10, IXSIZE=10, IYSIZE=10, IDXRATIO=4, IDYRATIO=4 /
&NAM_COVER     YCOVER='ECOCLIMAP_v2.0', YFILETYPE='DIRECT' /
&NAM_ZS        YZS='gtopo30',    YFILETYPE='DIRECT' /
&NAM_ISBA      YCLAY='CLAY_HWSD_MOY', YCLAYFILETYPE='DIRECT' ,
               YSAND='SAND_HWSD_MOY', YSANDFILETYPE='DIRECT' /

