&NAM_CONFIO  LCDF4=T, LLFIOUT=F, LLFIREAD=F /
&NAM_PGD1 YPGD1 = 'ICARTT1008_PGD_15km' /
&NAM_PGD2 YPGD2 = 'ICARTT1008_PGD_2km5', IDAD = 1 /
&NAM_NEST_PGD YNEST = 'e1' /

