&NAM_CONFIO  LCDF4=T, LLFIOUT=F, LLFIREAD=F /
&NAM_PGDFILE CPGDFILE='PGD4', NHALO=20 /
&NAM_PGD_GRID YINIFILE='PGD3' YINIFILETYPE='MESONH' /
&NAM_INIFILE_CONF_PROJ IXOR=          10 , IYOR=           7 , IXSIZE=           5 , IYSIZE=           5 , IDXRATIO=           5 , IDYRATIO=           5  /
&NAM_COVER     YCOVER='ECOCLIMAP_v2.0', YCOVERFILETYPE='DIRECT' /
&NAM_ZS        YZS='srtm_europe',    YZSFILETYPE='DIRECT' /
&NAM_ISBA      YCLAY='CLAY_HWSD_MOY', YCLAYFILETYPE='DIRECT' ,
               YSAND='SAND_HWSD_MOY', YSANDFILETYPE='DIRECT' /
