&NAM_CONFIO  LCDF4=T, LLFIOUT=F, LLFIREAD=F /
&NAM_VER_GRID NKMAX=46, YZGRID_TYPE = 'MANUAL' /
&NAM_DIMn_PRE NIMAX=320, NJMAX=1 /
&NAM_CONF_PRE NVERB=5, CIDEAL='RSOU',JPHEXT=1,NHALO=1  /
&NAM_GRIDH_PRE XDELTAX=1.25E3 /
&NAM_LUNITn CINIFILE='COPT_2D',CINIFILEPGD='COPT_PGD' /          
&NAM_VPROF_PRE LGEOSBAL=.FALSE., NILOC=19, NJLOC=1 /
&NAM_GRn_PRE CSURF='EXTE' /
&NAM_PGD_SCHEMES CNATURE='NONE', CSEA='FLUX', CWATER='NONE', CTOWN='NONE' /
&NAM_REAL_PGD /
&NAM_COVER XUNIF_COVER(1)=1. /
&NAM_BLANKn XDUMMY8=13.5 /
ZHAT
.0000000E+00
.7213016E+02
.1504758E+03
.2378252E+03
.3367744E+03
.4497268E+03
.5788933E+03
.7262926E+03
.8937506E+03
.1082901E+04
.1295185E+04
.1531851E+04
.1793956E+04
.2082363E+04
.2397744E+04
.2740577E+04
.3111149E+04
.3509554E+04
.3935693E+04
.4389276E+04
.4869819E+04
.5376646E+04
.5908888E+04
.6465486E+04
.7045184E+04
.7646539E+04
.8267912E+04
.8907473E+04
.9563196E+04
.1023287E+05
.1091408E+05
.1160424E+05
.1230054E+05
.1300054E+05
.1370054E+05
.1440054E+05
.1510054E+05
.1580054E+05
.1650054E+05
.1720054E+05
.1790054E+05
.1860054E+05
.1930054E+05
.2000054E+05
.2070054E+05
.2140054E+05
.2210054E+05

RSOU
1981 6 23 00.
'ZUVTHDMR'
0.
96840.
303.2
0.018
45
   109.52000         1.50000          .00000
   331.47000         1.50000          .00000
   557.44000         1.30000          .00000
   787.62000          .70000          .00000
  1022.20001         -.70000          .00000
  1261.40002        -1.90000          .00000
  1505.40002        -3.60000          .00000
  1754.50000        -5.20000          .00000
  2008.90002        -7.00000          .00000
  2268.89990        -8.70000          .00000
  2534.80005       -10.70000          .00000
  2807.00000       -13.00000          .00000
  3085.69995       -14.50000          .00000
  3371.50000       -14.30000          .00000
  3664.69995       -14.00000          .00000
  3965.69995       -13.00000          .00000
  4275.20020       -11.50000          .00000
  4593.70020        -9.00000          .00000
  4921.79980        -7.00000          .00000
  5260.29980        -6.20000          .00000
  5609.89990        -6.00000          .00000
  5971.60010        -5.80000          .00000
  6346.20020        -5.90000          .00000
  6735.10010        -5.90000          .00000
  7139.39990        -6.10000          .00000
  7560.79980        -6.50000          .00000
  8000.79980        -7.40000          .00000
  8461.50000        -8.30000          .00000
  8945.09961        -8.70000          .00000
  9454.59961        -8.50000          .00000
  9992.90039        -8.50000          .00000
 10564.00000        -9.00000          .00000
 11173.00000       -10.90000          .00000
 11824.00000       -12.50000          .00000
 12525.00000       -14.00000          .00000
 13284.00000       -13.80000          .00000
 14110.00000       -10.80000          .00000
 15015.00000        -5.50000          .00000
 16009.00000        -3.90000          .00000
 17105.00000        -3.90000          .00000
 18306.00000        -3.90000          .00000
 19602.00000        -3.90000          .00000
 20961.00000        -3.90000          .00000
 22330.00000        -3.90000          .00000
 22699.00000        -3.90000          .00000
45
   109.52000       303.31256          .01798    
   331.47000       304.80862          .01707    
   557.44000       305.80963          .01684    
   787.62000       306.38077          .01626    
  1022.20001       306.79352          .01584    
  1261.40002       307.37332          .01374    
  1505.40002       308.56570          .01191    
  1754.50000       309.55576          .01064    
  2008.90002       310.52228          .00985    
  2268.89990       311.45972          .00880    
  2534.80005       312.81018          .00766    
  2807.00000       313.77332          .00708    
  3085.69995       314.49118          .00704    
  3371.50000       315.81088          .00532    
  3664.69995       316.65024          .00464    
  3965.69995       317.74286          .00392    
  4275.20020       318.62488          .00314    
  4593.70020       320.25174          .00220    
  4921.79980       321.86115          .00265    
  5260.29980       323.52744          .00160    
  5609.89990       325.41809          .00113    
  5971.60010       326.75711          .00061    
  6346.20020       328.30981          .00088    
  6735.10010       330.35147          .00152    
  7139.39990       333.07013          .00168    
  7560.79980       334.74261          .00159    
  8000.79980       336.85959          .00028    
  8461.50000       339.37448          .00004    
  8945.09961       341.26581          .00008    
  9454.59961       343.77325          .00008    
  9992.90039       347.28568          .00005    
 10564.00000       346.93896          .00000    
 11173.00000       348.10150          .00000    
 11824.00000       350.63724          .00000    
 12525.00000       352.26645          .00000    
 13284.00000       353.81500          .00000    
 14110.00000       354.72928          .00000    
 15015.00000       356.34207          .00000    
 16009.00000       370.48300          .00000    
 17105.00000       394.63248          .00000    
 18306.00000       425.91132          .00000    
 19602.00000       453.81451          .00000    
 20961.00000       485.03967          .00000    
 22330.00000       518.66724          .00000    
 22699.00000       528.12354          .00000    
