&NAM_CONFIO LCDF4=T LLFIOUT=F LLFIREAD=F /
 &NAM_LUNITn CINIFILE = "DUST7.1.W5_S2.009" ,CINIFILEPGD="pgd_shade",
            CCPLFILE(1) = "S7020000926.06",     CCPLFILE(2) = "S7020000926.12",     CCPLFILE(3) = "S7020000926.18",     CCPLFILE(4) = "S7020000927.00" /
 &NAM_DYNn  XTSTEP = 120.,  CPRESOPT = "ZRESI", NITR = 12, LITRADJ=T,
            XRELAX = 1., LHORELAX_UVWTH = T, LHORELAX_RV = T, LVE_RELAX = T,
            NRIMX = 5, NRIMY = 5, XRIMKMAX = 0.0005, XT4DIFU = 4000.  /
 &NAM_ADVn  CUVW_ADV_SCHEME ="WENO_K",CMET_ADV_SCHEME = "PPM_01", CSV_ADV_SCHEME = "PPM_01" 
            NWENO_ORDER=5,CTEMP_SCHEME='RK53' /
 &NAM_PARAMn  CTURB = "TKEL", CRAD = "ECMWF",
              CCLOUD = "ICE3", CDCONV = "KAFR", CSCONV="KAFR"  /
 &NAM_PARAM_RADn  XDTRAD = 3600., XDTRAD_CLONLY = 1200., 
             NRAD_COLNBR = 400 , CLW = 'RRTM', CAER = 'TANR', CAOP='EXPL' /
 &NAM_PARAM_CONVECTn  XDTCONV = 300., NICE = 1, LREFRESH_ALL = T,
             LDOWN = T, LCHTRANS = T /
 &NAM_LBCn  CLBCX = 2*"OPEN", CLBCY = 2*"OPEN" /
 &NAM_TURBn CTURBLEN = "BL89", CTURBDIM = "1DIM", LTURB_FLX=T /
 &NAM_CONF CCONF = "RESTA", LFLAT = F, CEQNSYS = "DUR",NHALO=3,
          NMODEL = 1, NVERB = 5, CEXP = "DUST7", CSEG = "W5_S3" /
&NAM_DYN XSEGLEN = 86400, XASSELIN = 0.2, LCORIO = T, LNUMDIFU = F,
         XALKTOP = 0.001, XALZBOT = 16000. /
&NAM_NESTING   /
&NAM_BACKUP XBAK_TIME_FREQ=10800./
&NAM_DIAG_SURFn  /
&NAM_CH_SURFn /
&NAM_CH_ISBAn  /
&NAM_CH_SEAFLUXn /
&NAM_CH_WATFLUXn /
&NAM_CH_TEBn  /
&NAM_CH_MNHCn       LUSECHEM=.FALSE.,
                    LCH_CONV_SCAV = .TRUE. / 
&NAM_DUST LDUST = .TRUE.,
  LVARSIG    = .FALSE.,
  LSEDIMDUST = .TRUE.,
  NMODE_DST=3 / 
&NAM_CH_SOLVERn  / 
&NAM_PARAM_C2R2 LSEDC=.FALSE.,
                HPARAM_CCN='CPB', HINI_CCN='CCN', HTYPE_CCN='',
                XCHEN=2.01E+11, XKHEN=3.50, XMUHEN=3.76, XBETAHEN=44.1 /
&NAM_SURF_DST CEMISPARAM_DST='Dal87'/
&NAM_BUDGET /                   

