&NAM_CONFIO LCDF4=T LLFIOUT=F LLFIREAD=F / 
&NAM_FILE_NAMES HATMFILE ='CL.REF04.D70.E_00',
                HATMFILETYPE='MESONH',
                HPGDFILE ='PGD_mer04km', 
                CINIFILE='CB.RUC04.D70.E_00' /
&NAM_REAL_CONF CPRESOPT = 'ZRESI', 
               NVERB=5 /
&NAM_VER_GRID LTHINSHELL=T /
&NAM_HURR_CONF LFILTERING=F,
               LBOGUSSING=T,
               XLATBOG=-20., XLONBOG=60.,
               XVTMAXSURF=65, XRADWINDSURF=50,
	       XMAX=15000., XC=0.6, XRHO_Z=0.2, XRHO_ZZ=0.,
               XB_0=1.85, XBETA_Z=-0.55, XBETA_ZZ=0.,
               XANGCONV0=12., XANGCONV1000=3., XANGCONV2000=0.,
	       CDADATMFILE='CL.REF04.D70.E_00',
               CDADBOGFILE='CL.REF04.D70.E_00' /
&NAM_AERO_CONF /
&NAM_BLANK /
&NAM_PREP_SURF_ATM
NYEAR = 2002
NMONTH = 1
NDAY = 21
XTIME = 0. /
&NAM_PREP_SEAFLUX CFILE_SEAFLX = 'ocunifWOA2005DJF_20080212.nc', CTYPE_SEAFLX = 'NETCDF',
               LOCEAN_MERCATOR=.T., LOCEAN_CURRENT=.F. /
&NAM_PREP_WATFLUX /
&NAM_PREP_TEB /
&NAM_PREP_ISBA /
