&NAM_CONFIO LCDF4=T LLFIOUT=F LLFIREAD=F / 
&NAM_FILE_NAMES HATMFILE ='CL.REF04.D70.E_48',
                HATMFILETYPE='MESONH',
                HPGDFILE ='PGD_mer04km', 
                CINIFILE='CL.RUC04.D70.E_48' /
&NAM_REAL_CONF CPRESOPT = 'ZRESI', 
               NVERB=5 /
&NAM_VER_GRID LTHINSHELL=T /
&NAM_HURR_CONF LFILTERING=F,
               LBOGUSSING=F /
&NAM_AERO_CONF /
&NAM_BLANK /
&NAM_PREP_SURF_ATM
NYEAR = 2002
NMONTH = 1
NDAY = 21
XTIME = 0. /
&NAM_PREP_SEAFLUX CFILE_SEAFLX = 'ocunifWOA2005DJF_20080212.nc', CTYPE_SEAFLX = 'NETCDF',
               LOCEAN_MERCATOR=.T., LOCEAN_CURRENT=.F. /
&NAM_PREP_WATFLUX /
&NAM_PREP_TEB /
&NAM_PREP_ISBA /
