&NAM_CONFIO LCDF4=T LLFIOUT=T LLFIREAD=T /
&NAM_DIMn_PRE NIMAX=160 NJMAX=160 /
&NAM_CONF_PRE LCARTESIAN=.TRUE.
	      CIDEAL='RSOU' CZS='FLAT' 
              LBOUSS=.FALSE.  LPERTURB=.TRUE. 
	      CEQNSYS='LHE'
	      NVERB=5 /
&NAM_PERT_PRE CPERT_KIND= 'TH' , XAMPLITH= 3. ,
              LSET_RHU= .FALSE. , XAMPLIRV= 0. ,
              XCENTERZ= 3000. , XAMPLIUV=0.0 , XAMPLIWH=0.0 ,
              XRADX= 10000., XRADY= 10000., XRADZ= 1500. /
&NAM_CONFn LUSERV= T , LUSERC= F LUSERI= F, 
           NSV_USER= 0/
&NAM_GRID_PRE XLAT0= 35. XLON0=-100.  /
&NAM_GRIDH_PRE XDELTAX= 1.E3, XDELTAY= 1.E3  /
&NAM_LUNITn
  CINIFILE='STERAO_LARGE'  /
&NAM_DYNn_PRE CPRESOPT= 'RICHA' NITR=4 XRELAX=1. /
&NAM_LBCn_PRE CLBCX= 2*'OPEN' CLBCY= 2*'OPEN' /
&NAM_VPROF_PRE CTYPELOC='IJGRID' NILOC=18 NJLOC=18
               CFUNU='ZZZ' CFUNV='ZZZ'
               LGEOSBAL=.FALSE. /
&NAM_VER_GRID NKMAX=50 YZGRID_TYPE='MANUAL' /
ZHAT
1500.00
1577.13
1633.68
1695.05
1761.63
1833.88
1912.27
1997.32
2089.6
2189.73
2298.37
2416.26
2544.16
2682.94
2833.51
2996.89
3174.17
3366.51
3575.21
3801.65
4047.34
4313.93
4603.18
4917.02
5257.54
5627.02
6027.92
6462.9
6934.86
7446.95
8002.58
8605.46
9259.59
9950
10650
11350
12050
12750
13450
14150
14850
15550
16250
16950
17650
18350
19050
19750
20450
21150
23150
RSOU
1996 7 10 82800
'ZUVTHDMR'
1500.
85000.
313.59
0.0115
50
1577.13 -7 14.5
1633.68 -7 14.5
1695.05 -7 14.5
1761.63 -5.88 14.5
1833.88 -4.57 14.1
1912.27 -3.14 13.65
1997.32 -1.59 12.27
2089.6 -1 11.5
2189.73 -0.52 10.9
2298.37 0.01 10.2
2416.26 0.69 9.4
2544.16 2.22 8.5
2682.94 3.88 7.6
2833.51 4.88 6.61
2996.89 5.84 5.5
3174.17 6.4 3.3
3366.51 6.4 2.2
3575.21 6.41 -1.7
3801.65 6.6 -4.5
4047.34 6.8 -4.77
4313.93 6.93 -4.88
4603.18 5.86 -4.57
4917.02 4.71 -4.23
5257.54 4.6 -5.78
5627.02 4.49 -5.58
6027.92 4.33 -4.49
6462.9 7.49 -4.15
6934.86 8.5 -4.5
7446.95 11 -7
8002.58 11.5 -7.5
8605.46 12.5 -8.5
9259.59 13.5 -9
9950 14 -9.5
10650 15.5 -10.5
11350 16 -9
12050 18.5 -3.5
12750 23.5 0.37
13450 23.5 2.12
14150 22.5 1.08
14850 19.5 1.08
15550 16.88 0.78
16250 14.7 -0.1
16950 14.7 -0.1
17650 14.7 -0.1
18350 14.7 -0.1
19050 14.7 -0.1
19750 14.7 -0.1
20450 14.7 -0.1
21150 14.7 -0.1
23150 14.7 -0.1
50
1577.13 313.61 11.50e-3
1633.68 313.62 11.50e-3
1695.05 313.64 11.50e-3
1761.63 313.66 11.50e-3
1833.88 313.69 11.50e-3
1912.27 313.72 11.50e-3
1997.32 313.76 11.50e-3
2089.6 313.81 11.50e-3
2189.73 313.87 11.50e-3
2298.37 313.94 11.50e-3
2416.26 314.03 11.50e-3
2544.16 314.14 11.50e-3
2682.94 314.27 10.85e-3
2833.51 314.80 10.65e-3
2996.89 315.30 9.61e-3
3174.17 316.10 8.76e-3
3366.51 316.40 8.20e-3
3575.21 316.70 7.58e-3
3801.65 317.10 6.61e-3
4047.34 317.80 5.56e-3
4313.93 318.10 4.46e-3
4603.18 318.70 3.93e-3
4917.02 319.10 3.36e-3
5257.54 320.00 2.51e-3
5627.02 321.70 2.11e-3
6027.92 323.30 1.89e-3
6462.9 325.80 1.56e-3
6934.86 327.90 1.12e-3
7446.95 329.40 0.60e-3
8002.58 331.50 0.37e-3
8605.46 333.10 0.26e-3
9259.59 334.40 0.19e-3
9950 336.80 0.12e-3
10650 338.60 0.06e-3
11350 341.40 0.01e-3
12050 345.20 0.01e-3
12750 349.50 0.00e-3
13450 353.50 0.00e-3
14150 360.40 0.00e-3
14850 368.95 0.00e-3
15550 378.01 0.00e-3
16250 388.14 0.00e-3
16950 406.29 0.00e-3
17650 425.89 0.00e-3
18350 445.09 0.00e-3
19050 464.65 0.00e-3
19750 484.40 0.00e-3
20450 504.25 0.00e-3
21150 524.20 0.00e-3
23150 584.20 0.00e-3
