&NAM_PGD1 YPGD1 = 'PGD1' /
&NAM_PGD2 YPGD2 = 'PGD2', IDAD = 1 /
&NAM_NEST_PGD YNEST = 'e1' /
&NAM_CONFIO  LCDF4=T, LLFIOUT=F, LLFIREAD=F /
