&NAM_CONFIO LCDF4=T LLFIOUT=F LLFIREAD=F /
&NAM_FILE_NAMES HATMFILE='aladin.FC.20100227.12.09',HATMFILETYPE='GRIBEX',
                HPGDFILE='PGD_MIDPYR',
                CINIFILE='ALA_20100227.12.09' /
&NAM_REAL_CONF NVERB=5, CEQNSYS='DUR',LCOUPLING=T  /
&NAM_PREP_ISBA LISBA_CANOPY=T /
&NAM_PREP_TEB LTEB_CANOPY=T /
&NAM_VER_GRID NKMAX=46, YZGRID_TYPE='MANUAL'/
ZHAT
0.
18.07
40.73
71.
109.62
156.44
211.520
275.030
347.215
428.395
518.955
619.345
730.105
851.850
985.290
1131.230
1290.570
1464.330
1652.635
1853.765
2066.255
2290.855
2529.370
2783.560
3055.155
3345.880
3657.500
3991.925
4351.290
4738.075
5155.195
5606.090
6094.920
6626.710
7207.525
7844.750
8547.430
9326.795
10196.815
11174.860
12282.795
13548.650
14994.520
16617.525
18409.155
20386.185
22590.430

