&NAM_CONFIO    LCDF4=T /

&NAM_CONF      NMODEL = 1,
               CSPLIT='BSPLITTING' /

&NAM_CONFZ     NZ_VERB = 2,
               NZ_PROC = 0,
               NB_PROCIO_W = 1,
               MPI_BUFFER_SIZE = 1000 /

&NAM_DIMn_PRE  NIMAX=1200,
               NJMAX=1200 /

&NAM_LUNITn    CINIFILE='MUSTFATHER',
               CINIFILEPGD='MUSTFATHER_PGD' /

&NAM_DYNn_PRE  CPRESOPT ='ZRESI',
               NITR=16,
               LRES =.TRUE.,
               XRES = 1.E-05 /

&NAM_LBCn_PRE  CLBCX =2*'OPEN',
               CLBCY =2*'OPEN' /

&NAM_GRIDH_PRE XDELTAX=0.6E+0,
               XDELTAY=0.6E+0,
               XHMAX = 0.,
               XAX = 0. /

&NAM_VER_GRID  NKMAX=40,
               YZGRID_TYPE='FUNCTN',
               ZZMAX_STRGRD=6.E+0,
               ZSTRGRD=0.E+0,
               ZSTRTOP=14.5E+0,
               ZDZGRD=0.3E+0/

&NAM_GRID_PRE  XLAT0=40.13,
               XLON0=-113.11,
               XBETA=0.,
               XRPK=0.,
               XLATORI=40.13,
               XLONORI=-113.11  /

&NAM_CONF_PRE  CIDEAL = 'CSTN',
               CEQNSYS='DUR',
               NVERB=10,
               LCARTESIAN=.TRUE.,
               CZS='FLAT',
               LPERTURB = .TRUE.,
               LFORCING = .FALSE.,  
               NHALO=4,
               JPHEXT = 1 /

&NAM_VPROF_PRE LGEOSBAL=.FALSE.,	
               CFUNU='ZZZ',             
               CFUNV='ZZZ',             
               CTYPELOC='IJGRID',       
               NILOC=2,			
               NJLOC=2 /

&NAM_PERT_PRE CPERT_KIND="WW",
              XAMPLITH = 0.,
              XAMPLIRV = 0.,
              XAMPLIUV = 0.0,
              XAMPLIWH = 0.5,
              NKWH = 30,
              LSET_RHU=FALSE / 

&NAM_CONFn LUSERV = .TRUE. /

&NAM_GRn_PRE CSURF='EXTE' /

&NAM_PGD_SCHEMES    CNATURE = 'FLUX'    , 
                    CSEA    = 'NONE'    , 
                    CTOWN   = 'NONE'    , 
                    CWATER  = 'NONE' /

&NAM_FRAC           LECOCLIMAP = F,
                    XUNIF_SEA    = 0.,
                    XUNIF_WATER  = 0.,
                    XUNIF_TOWN   = 0.,
                    XUNIF_NATURE = 1. /

&NAM_IDEAL_FLUX CUSTARTYPE='Z0',
                XZ0=0.045,
                XALB=0.25,
                XEMIS=1.,
                NFORCT = 2,
                XTIMET(1) = 0.,
                XTIMET(2) = 87000.,
                XTSRAD(1) = 317.5,
                XTSRAD(2) = 317.5,
                NFORCF = 2,
                XTIMEF(1) = 0.,
                XTIMEF(2) = 87000.,
                XSFTH(1) = 0.,
                XSFTH(2) = 0.,
                CSFTQ='kg/m2/s',
                XSFTQ(1)=0.,
                XSFTQ(2)=0.,
                XSFCO2(1) = 0.,
                XSFCO2(2) = 0. /

CSTN
2000 01 01 0.
133
317.5
85000.
0.000   0.200   0.400   0.600   0.800   1.000   1.200   1.400   1.600   1.800   2.000   2.200   2.400   2.600   2.800   3.000   3.200   3.400   3.600   3.800   4.000   4.200   4.400   4.600   4.800   5.000   5.200   5.400   5.600   5.800   6.000   6.200   6.400   6.600   6.800   7.000   7.200   7.400   7.600   7.800   8.000   8.200   8.400   8.600   8.800   9.000   9.200   9.400   9.600   9.800   10.000  10.200  10.400  10.600  10.800  11.000  11.200  11.400  11.600  11.800  12.000  12.200  12.400  12.600  12.800  13.000  13.200  13.400  13.600  13.800  14.000  14.200  14.400  14.600  14.800  15.000  15.200  15.400  15.600  15.800  16.000  16.200  16.400  16.600  16.800  17.000  17.200  17.400  17.600  17.800  18.000  18.200  18.400  18.600  18.800  19.000  19.200  19.400  19.600  19.800  20.000  20.200  20.400  20.600  20.800  21.000  21.200  21.400  21.600  21.800  22.000  22.200  22.400  22.600  22.800  23.000  23.200  23.400  23.600  23.800  24.000  24.200  24.400  24.600  24.800  25.000  26.900  29.215  31.750  34.500  37.560  40.900  44.500  48.520
0.010   2.286   3.091   3.592   3.956   4.243   4.479   4.680   4.855   5.010   5.149   5.274   5.390   5.496   5.594   5.686   5.771   5.852   5.928   6.000   6.069   6.134   6.196   6.255   6.312   6.367   6.419   6.470   6.518   6.565   6.611   6.655   6.697   6.738   6.778   6.817   6.855   6.892   6.928   6.962   6.996   7.029   7.062   7.093   7.124   7.154   7.184   7.213   7.241   7.269   7.296   7.322   7.349   7.374   7.399   7.424   7.448   7.472   7.495   7.518   7.541   7.563   7.585   7.606   7.628   7.648   7.669   7.689   7.709   7.729   7.748   7.767   7.786   7.804   7.823   7.841   7.859   7.876   7.894   7.911   7.928   7.944   7.961   7.977   7.993   8.009   8.025   8.040   8.056   8.071   8.086   8.101   8.116   8.130   8.145   8.159   8.173   8.187   8.201   8.214   8.228   8.241   8.255   8.268   8.281   8.294   8.306   8.319   8.332   8.344   8.356   8.368   8.380   8.392   8.404   8.416   8.428   8.439   8.451   8.462   8.473   8.485   8.496   8.507   8.518  8.640  8.750  8.866  8.980  9.100  9.225  9.352  9.486
0.010   -1.987  -2.687  -3.122  -3.439  -3.688  -3.894  -4.068  -4.220  -4.355  -4.476  -4.585  -4.685  -4.777  -4.863  -4.942  -5.017  -5.087  -5.153  -5.216  -5.276  -5.332  -5.386  -5.438  -5.487  -5.535  -5.580  -5.624  -5.666  -5.707  -5.747  -5.785  -5.822  -5.858  -5.892  -5.926  -5.959  -5.991  -6.022  -6.052  -6.082  -6.111  -6.139  -6.166  -6.193  -6.219  -6.245  -6.270  -6.295  -6.319  -6.342  -6.365  -6.388  -6.410  -6.432  -6.453  -6.475  -6.495  -6.516  -6.535  -6.555  -6.574  -6.593  -6.612  -6.631  -6.649  -6.666  -6.684  -6.701  -6.718  -6.735  -6.752  -6.768  -6.784  -6.800  -6.816  -6.831  -6.847  -6.862  -6.877  -6.891  -6.906  -6.920  -6.934  -6.948  -6.962  -6.976  -6.989  -7.003  -7.016  -7.029  -7.042  -7.055  -7.068  -7.080  -7.092  -7.105  -7.117  -7.129  -7.141  -7.152  -7.164  -7.176  -7.187  -7.198  -7.210  -7.221  -7.232  -7.242  -7.253  -7.264  -7.275  -7.285  -7.295  -7.306  -7.316  -7.326  -7.336  -7.346  -7.356  -7.366  -7.376  -7.385  -7.395  -7.404  -7.642  -7.750  -7.855  -7.965  -8.080  -8.196  -8.320  -8.450
0.00    0.00    0.00    0.00    0.00    0.00    0.00    0.00    0.00    0.00    0.00    0.00    0.00    0.00    0.00    0.00    0.00    0.00    0.00    0.00    0.00    0.00    0.00    0.00    0.00    0.00    0.00    0.00    0.00    0.00    0.00    0.00    0.00    0.00    0.00    0.00    0.00    0.00    0.00    0.00    0.00    0.00    0.00    0.00    0.00    0.00    0.00    0.00    0.00    0.00    0.00    0.00    0.00    0.00    0.00    0.00    0.00    0.00    0.00    0.00    0.00    0.00    0.00    0.00    0.00    0.00    0.00    0.00    0.00    0.00    0.00    0.00    0.00    0.00    0.00    0.00    0.00    0.00    0.00    0.00    0.00    0.00    0.00    0.00    0.00    0.00    0.00    0.00    0.00    0.00    0.00    0.00    0.00    0.00    0.00    0.00    0.00    0.00    0.00    0.00    0.00    0.00    0.00    0.00    0.00    0.00    0.00    0.00    0.00    0.00    0.00    0.00    0.00    0.00    0.00    0.00    0.00    0.00    0.00    0.00    0.00    0.00    0.00    0.00    0.00    0.00    0.00    0.00    0.00    0.00    0.00    0.00    0.00
0.00    0.00    0.00    0.00    0.00    0.00    0.00    0.00    0.00    0.00    0.00    0.00    0.00    0.00    0.00    0.00    0.00    0.00    0.00    0.00    0.00    0.00    0.00    0.00    0.00    0.00    0.00    0.00    0.00    0.00    0.00    0.00    0.00    0.00    0.00    0.00    0.00    0.00    0.00    0.00    0.00    0.00    0.00    0.00    0.00    0.00    0.00    0.00    0.00    0.00    0.00    0.00    0.00    0.00    0.00    0.00    0.00    0.00    0.00    0.00    0.00    0.00    0.00    0.00    0.00    0.00    0.00    0.00    0.00    0.00    0.00    0.00    0.00    0.00    0.00    0.00    0.00    0.00    0.00    0.00    0.00    0.00    0.00    0.00    0.00    0.00    0.00    0.00    0.00    0.00    0.00    0.00    0.00    0.00    0.00    0.00    0.00    0.00    0.00    0.00    0.00    0.00    0.00    0.00    0.00    0.00    0.00    0.00    0.00    0.00    0.00    0.00    0.00    0.00    0.00    0.00    0.00    0.00    0.00    0.00    0.00    0.00    0.00    0.00    0.00    0.00    0.00    0.00    0.00    0.00    0.00    0.00

