&NAM_CONFIO LCDF4=T/
&NAM_PGD1 YPGD1 = 'CHARMEX0714_PGD_50km' /
&NAM_PGD2 YPGD2 = 'CHARMEX0714_PGD_12km5', IDAD = 1 /
&NAM_NEST_PGD YNEST = 'e1' /
