&NAM_CONFZ MPI_BUFFER_SIZE=200 /
&NAM_CONFIO LCDF4=.TRUE., 
 LLFIOUT=.FALSE., LLFIREAD=.FALSE. /
&NAM_LUNITn              CINIFILE='IHOP_542', 
                  CINIFILEPGD='IHOP_542_pgd'  /                 
&NAM_REAL_PGD /

&NAM_DIMn_PRE            NIMAX=256,
                         NJMAX=256 /

&NAM_CONF_PRE            LCARTESIAN = .TRUE.,
                         CEQNSYS = 'DUR',
                         NVERB = 10,
                         CIDEAL = 'RSOU',
                         CZS = 'FLAT',
                         LBOUSS = .FALSE.,
                         LPERTURB = .TRUE.,
                         LFORCING = .TRUE. /

&NAM_CONFn               LUSERV = T,NSV_USER=2/

&NAM_PERT_PRE            CPERT_KIND='WH',
                         XAMPLIWH=0.01 /

&NAM_LBCn_PRE            CLBCX = 2*"CYCL", 
                         CLBCY = 2*"CYCL" / 

&NAM_GRID_PRE            XLON0=-100.61,
                         XLAT0=36.56/
&NAM_GRIDH_PRE           XDELTAX =50.0,
                         XDELTAY = 50.0,
                         XHMAX = 0.  /

&NAM_VER_GRID            LTHINSHELL = .FALSE., 
                         NKMAX=90, 
                         YZGRID_TYPE='MANUAL' /

&NAM_DYNn_PRE  CPRESOPT='ZRESI'/         

&NAM_GRn_PRE             CSURF = 'EXTE' /

&NAM_PGD_SCHEMES         CNATURE = 'NONE'    , 
                         CSEA    = 'FLUX'    , 
                         CTOWN   = 'NONE'    , 
                         CWATER  = 'NONE' /
&NAM_COVER          XUNIF_COVER(1)=1./
ZHAT
0.0
10.0
20.0
31.0
42.0
54.0
66.0
79.0
92.0
106.0
122.0
140.0
160.0
182.0
206.0
230.0
255.0
280.0
305.0
330.0
355.0
380.0
405.0
430.0
455.0
480.0
505.0
530.0
555.0
580.0
605.0
630.0
655.0
680.0
705.0
730.0
755.0
780.0
805.0
830.0
855.0
880.0
905.0
930.0
955.0
980.0
1005.0
1030.0
1055.0
1080.0
1105.0
1130.0
1155.0
1180.0
1205.0
1230.0
1255.0
1280.0
1305.0
1330.0
1355.0
1380.0
1405.0
1430.0
1455.0
1480.0
1505.0
1532.5
1563.
1596.
1633.
1673.
1717.
1766.
1819.
1878.
1943.
2015.
2093.
 2179.
 2274.
 2379.
 2494.
 2620.
 2759.
 2912.
 3080.
 3265.
 3469.
 3692.
 3938.
RSOU
2002 06 14 21600.0
'ZUVTHDMR'
  0.0
91800.0
296.0
  .0112
 99
  76.0   .00  -2.00
 124.0   .00  -1.50
 174.0   .00  -1.00
 225.0   .00  -0.50
 274.0   .00  -0.50
 325.0   .00  -1.00
 375.0   .00  -1.50
 425.0   .00  -2.00
 475.0   .00  -2.50
 525.0   .00  -3.00
 574.0 -0.50  -3.00
 624.0 -1.00  -3.00
 674.0 -1.50  -3.00
 725.0 -2.00  -3.50
 774.0 -2.00  -4.00
 825.0 -2.00  -4.00
 874.0 -2.20  -4.00
 925.0 -2.50  -4.00
 974.0 -2.70  -4.00
1025.0 -3.00  -4.00
1075.0 -3.00  -4.50
1125.0 -3.00  -5.00
1175.0 -3.00  -5.00
1225.0 -2.70  -5.00
1275.0 -2.50  -5.00
1324.0 -2.20  -4.50
1374.0 -1.50  -4.00
1424.0 -1.00  -4.00
1474.0 -0.70  -4.00
1524.0 -0.50  -3.50
1575.0 -0.20  -3.00
1625.0   .00  -3.00
1675.0   .20  -3.50
1725.0   .50  -4.00
1774.0   .70  -5.00
1825.0  1.00  -5.80
1874.0  1.00  -6.30
1924.0  1.00  -7.00
1974.0  1.00  -7.50
2025.0  1.00  -8.00
2075.0  1.00  -8.50
2124.0  1.00  -9.00
2176.0  1.00  -9.50
2225.0  1.50 -10.00
2275.0  2.00 -10.00
2325.0  2.50 -10.00
2375.0  3.00 -10.00
2426.0  3.00 -10.20
2475.0  3.50 -10.50
2524.0  4.00 -10.70
2575.0  5.00 -11.00
2624.0  6.00 -11.50
2675.0  7.00 -12.00
2725.0  8.00 -11.50
2775.0  9.00 -11.00
2824.0  9.50 -10.50
2875.0 10.00 -10.00
2923.0 11.00 -10.00
2974.0 12.00  -9.50
3024.0 13.00  -9.00
3075.0 14.00  -9.00
3125.0 15.00  -8.50
3176.0 15.50  -8.00
3225.0 16.00  -8.00
3275.0 16.50  -8.00
3324.0 17.00  -8.00
3375.0 17.50  -8.20
3424.0 18.00  -8.50
3475.0 18.20  -8.70
3525.0 18.50  -9.00
3574.0 18.70  -9.50
3625.0 19.00 -10.00
3675.0 19.50 -10.50
3723.0 20.00 -11.00
3774.0 20.00 -12.00
3824.0 20.00 -12.00
3873.0 20.00 -12.00
3924.0 20.00 -12.00
3974.0 20.00 -12.00
4025.0 19.50 -12.00
4075.0 19.00 -12.00
4125.0 19.00 -12.00
4175.0 19.00 -12.00
4218.0 19.00 -12.00
4274.9 19.00 -12.00
4325.6 19.00 -12.00
4374.5 19.00 -12.00
4425.7 19.00 -12.00
4474.9 19.00 -12.00
4525.6 19.00 -12.00
4574.5 19.00 -12.00
4625.0 19.00 -12.00
4674.5 19.00 -12.00
4724.8 19.00 -12.00
4774.9 19.00 -12.00
4823.4 19.00 -12.00
4874.5 19.00 -12.00
4925.3 19.00 -12.00
4974.5 19.00 -12.00
100
  76.0 297.00   .0111 0
 124.0 298.00   .0110 0
 174.0 298.30   .0109 0
 225.0 298.60   .0108 0
 274.0 299.00   .0107 0
 325.0 299.30   .0105 0
 375.0 299.60   .0103 0
 425.0 300.00   .0100 0
 475.0 300.30   .0098 0
 525.0 300.60   .0096 0
 574.0 301.00   .0094 0
 624.0 301.30   .0091 0
 674.0 301.50   .0088 0
 725.0 301.70   .0085 0
 774.0 302.00   .0082 0
 825.0 302.10   .0079 0
 874.0 302.30   .0076 0
 925.0 302.40   .0073 0
 974.0 302.60   .0070 0
1025.0 302.70   .0067 0
1075.0 302.90   .0064 0
1125.0 303.00   .0061 0
1175.0 303.50   .0058 0
1225.0 304.00   .0055 0
1275.0 304.50   .0053 0
1324.0 305.00   .0051 0
1374.0 305.20   .0050 0
1424.0 305.40   .0050 0
1474.0 305.60   .0050 0
1524.0 305.80   .0049 0
1575.0 306.00   .0049 0
1625.0 306.20   .0049 0
1675.0 306.40   .0049 0
1725.0 306.60   .0049 0
1774.0 306.80   .0048 0
1825.0 307.00   .0048 0
1874.0 307.00   .0048 0
1924.0 307.10   .0048 0
1974.0 307.30   .0048 0
2025.0 307.40   .0048 0
2075.0 307.60   .0048 0
2124.0 307.70   .0048 0
2176.0 307.80   .0047 0
2225.0 307.90   .0047 0
2275.0 308.00   .0047 0
2325.0 308.20   .0047 0
2375.0 308.40   .0047 0
2426.0 308.60   .0047 0
2475.0 308.80   .0047 0
2524.0 309.00   .0046 0
2575.0 309.30   .0046 0
2624.0 309.60   .0046 0
2675.0 310.00   .0046 0
2725.0 310.50   .0046 0
2775.0 311.00   .0046 0
2824.0 311.20   .0046 0
2875.0 311.40   .0046 0
2923.0 311.60   .0046 0
2974.0 311.80   .0046 0
3024.0 312.00   .0046 0
3075.0 312.50   .0045 0
3125.0 313.00   .0045 0
3176.0 313.50   .0045 0
3225.0 314.00   .0045 0
3275.0 314.20   .0045 0
3324.0 314.40   .0045 0
3375.0 314.60   .0045 0
3424.0 314.80   .0045 0
3475.0 315.00   .0044 0
3525.0 315.30   .0043 0
3574.0 315.60   .0042 0
3625.0 316.00   .0041 0
3675.0 316.20   .0039 0
3723.0 316.40   .0037 0
3774.0 316.60   .0036 0
3824.0 316.80   .0035 0
3873.0 317.00   .0033 0
3924.0 317.20   .0031 0
3974.0 317.40   .0030 0
4025.0 317.60   .0030 0
4075.0 317.80   .0029 0
4125.0 318.00   .0028 0
4175.0 318.30   .0027 0
4218.0 318.60   .0025 0
4274.9 318.78   .0024 0
4325.6 319.06   .0023 0
4374.5 319.58   .0021 0
4425.7 320.00   .0017 0
4474.9 320.50   .0015 0
4525.6 321.00   .0015 0
4574.5 321.30   .0008 0
4625.0 321.60   .0002 0
4674.5 322.00   .0002 0
4724.8 323.00   .0002 0
4774.9 324.00   .0001 0
4823.4 325.00   .0001 0
4874.5 325.27   .0001 0
4925.3 325.49   .0001 0
4974.5 325.63   .0001 0
ZFRC
 3
2002 06 14 21600.0
  0.0
92400.3
296.18
0.0107
24
  16.0 -0.5  -2.6   0.00 0.0000  0.00 -0.00004 -0.00000002 0 0
  51.4 -0.6  -2.7   0.00 0.0000  0.00 -0.00004 -0.00000002 0 0
  86.9 -0.9  -2.8   0.00 0.0000  0.00 -0.00004 -0.00000003 0 0
 122.6 -1.1  -2.7   0.00 0.0000  0.00 -0.00004 -0.00000003 0 0
 158.4 -1.3  -2.7   0.00 0.0000  0.00 -0.00004 -0.00000003 0 0
 212.3 -1.5  -2.6   0.00 0.0000  0.00 -0.00004 -0.00000003 0 0
 284.7 -1.8  -2.4   0.00 0.0000 -0.005 -0.00004 -0.00000003 0 0
 357.7 -2.2  -2.0   0.00 0.0000 -0.01 -0.00004 -0.00000003 0 0
 431.2 -2.3  -1.6   0.00 0.0000 -0.01 -0.00004 -0.00000003 0 0
 505.2 -2.2  -1.5   0.00 0.0000 -0.01 -0.00003 -0.00000003 0 0
 579.9 -2.0  -1.5   0.00 0.0000 -0.01 -0.00002 -0.00000003 0 0
 655.1 -1.8  -1.5   0.00 0.0000 -0.01 -0.00002 -0.00000003 0 0
 769.0 -1.4  -1.9   0.00 0.0000 -0.01 -0.00002 -0.00000003 0 0
 923.1 -0.9  -2.5   0.00 0.0000 -0.01 -0.00002 -0.00000003 0 0
1079.8 -0.6  -3.2   0.00 0.0000 -0.01 -0.00002 -0.00000005 0 0
1239.0 -0.5  -3.9   0.00 0.0000 -0.01 -0.00002 -0.00000006 0 0
1401.0 -1.0  -4.4   0.00 0.0000 -0.01 -0.00002 -0.00000007 0 0
1586.6 -1.9  -5.1   0.00 0.0000 -0.01 -0.00002 -0.00000008 0 0
1797.2 -2.4  -5.8   0.00 0.0000 -0.01 -0.00003 -0.00000009 0 0
2122.2 -1.3  -6.3   0.00 0.0000 -0.01 -0.00007 -0.00000007 0 0
2574.1  2.3  -7.5   0.00 0.0000 -0.01 -0.00008 -0.00000006 0 0
3049.3  6.2 -10.1   0.00 0.0000 -0.01 -0.00010 -0.00000000 0 0
3811.9 12.1 -12.7   0.00 0.0000 -0.005 -0.00007  0.00000000 0 0
4500.  19.0 -15.0   0.00 0.0000  0.00 -0.00005 -0.00000000 0 0
2002 06 14 32400.0
  0.0
92308.3
300.50
0.0095
24
  16.0 -0.9  -2.3   0.00 0.0000  0.00 -0.00004 -0.00000004 0 0
  51.4 -0.9  -2.3   0.00 0.0000  0.00 -0.00004 -0.00000004 0 0
  86.9 -0.9  -2.3   0.00 0.0000  0.00 -0.00004 -0.00000004 0 0
 122.6 -0.9  -2.3   0.00 0.0000  0.00 -0.00004 -0.00000004 0 0
 158.4 -0.8  -2.3   0.00 0.0000  0.00 -0.00004 -0.00000004 0 0
 212.3 -0.8  -2.3   0.00 0.0000  0.00 -0.00004 -0.00000004 0 0
 284.7 -0.8  -2.3   0.00 0.0000 -0.00 -0.00004 -0.00000004 0 0
 357.7 -0.8  -2.2   0.00 0.0000 -0.00 -0.00004 -0.00000004 0 0
 431.2 -0.8  -2.2   0.00 0.0000 -0.00 -0.00004 -0.00000003 0 0
 505.2 -0.8  -2.0   0.00 0.0000 -0.003 -0.00004 -0.00000003 0 0
 579.9 -0.7  -1.8   0.00 0.0000 -0.006 -0.00003 -0.00000003 0 0
 655.1 -0.5  -1.7   0.00 0.0000 -0.01 -0.00003 -0.00000003 0 0
 769.0 -0.0  -1.5   0.00 0.0000 -0.01 -0.00002 -0.00000002 0 0
 923.1  0.5  -1.5   0.00 0.0000 -0.01 -0.00002 -0.00000002 0 0
1079.8  0.7  -1.4   0.00 0.0000 -0.01 -0.00001 -0.00000002 0 0
1239.0  0.4  -1.3   0.00 0.0000 -0.01 -0.00000 -0.00000002 0 0
1401.0 -0.1  -1.6   0.00 0.0000 -0.01 -0.00001 -0.00000001 0 0
1586.6  0.1  -2.7   0.00 0.0000 -0.01 -0.00003 -0.00000001 0 0
1797.2  0.9  -4.1   0.00 0.0000 -0.01 -0.00004 -0.00000002 0 0
2122.2  2.3  -5.3   0.00 0.0000 -0.01 -0.00005 -0.00000005 0 0
2574.1  5.0  -6.7   0.00 0.0000 -0.01 -0.00006 -0.00000002 0 0
3049.3  7.3  -9.8   0.00 0.0000 -0.01 -0.00010  0.00000004 0 0
3811.9 12.1 -11.5   0.00 0.0000 -0.005 -0.00007  0.00000001 0 0
4500.  17.0 -14.0   0.00 0.0000  0.00 -0.00005  0.00000000 0 0
2002 06 14 43200.0
  0.0
92131.0
304.33
0.0085
24
  16.0 -3.8  -0.8   0.00 0.0000  0.00 -0.00004 -0.00000002 0 0
  51.4 -3.8  -0.7   0.00 0.0000  0.00 -0.00004 -0.00000002 0 0
  86.9 -3.8  -0.7   0.00 0.0000  0.00 -0.00004 -0.00000002 0 0
 122.6 -3.8  -0.7   0.00 0.0000  0.00 -0.00004 -0.00000002 0 0
 158.4 -3.8  -0.7   0.00 0.0000  0.00 -0.00004 -0.00000002 0 0
 212.3 -3.7  -0.6   0.00 0.0000  0.00 -0.00004 -0.00000002 0 0
 284.7 -3.7  -0.6   0.00 0.0000 -0.00 -0.00004 -0.00000002 0 0
 357.7 -3.6  -0.6   0.00 0.0000 -0.00 -0.00003 -0.00000002 0 0
 431.2 -3.6  -0.5   0.00 0.0000 -0.00 -0.00003 -0.00000002 0 0
 505.2 -3.5  -0.4   0.00 0.0000 -0.00 -0.00003 -0.00000001 0 0
 579.9 -3.5  -0.4   0.00 0.0000 -0.001 -0.00003 -0.00000001 0 0
 655.1 -3.4  -0.3   0.00 0.0000 -0.002 -0.00003 -0.00000001 0 0
 769.0 -3.2  -0.2   0.00 0.0000 -0.004 -0.00002 -0.00000001 0 0
 923.1 -2.9   0.1   0.00 0.0000 -0.006 -0.00002 -0.00000000 0 0
1079.8 -2.4   0.4   0.00 0.0000 -0.008 -0.00001  0.00000000 0 0
1239.0 -1.5   0.9   0.00 0.0000 -0.01  0.00000  0.00000001 0 0
1401.0 -0.4   1.5   0.00 0.0000 -0.01 -0.00001  0.00000002 0 0
1586.6  1.3   1.0   0.00 0.0000 -0.01 -0.00002  0.00000006 0 0
1797.2  2.5  -0.8   0.00 0.0000 -0.01 -0.00005  0.00000008 0 0
2122.2  2.7  -2.8   0.00 0.0000 -0.01 -0.00003 -0.00000002 0 0
2574.1  4.4  -4.1   0.00 0.0000 -0.01 -0.00004 -0.00000005 0 0
3049.3  7.4  -5.8   0.00 0.0000 -0.01 -0.00011 -0.00000001 0 0
3811.9  9.9 -10.2   0.00 0.0000 -0.005 -0.00008  0.00000001 0 0
4500.  13.0 -14.0   0.00 0.0000  0.00 -0.00005  0.00000000 0 0
