&NAM_CONFIO  LCDF4=T, LLFIOUT=T, LLFIREAD=T /
&NAM_FILE_NAMES HATMFILE ='FICHIER_INIT.spa00' , HATMFILETYPE='MESONH',
                HPGDFILE ='PGD2.neste1' , CINIFILE='FICHIER_INIT_FILS' /
&NAM_REAL_CONF NVERB=5 /
&NAM_VER_GRID NKMAX=50/
&NAM_PREP_SURF_ATM CFILE = 'FICHIER_INIT', CFILEPGD = 'PGD1.neste1', CFILETYPE = 'MESONH',  NHALO_PREP=10/
&NAM_REAL_CONF      NHALO=1, JPHEXT=1 /
