&NAM_CONFIO  LCDF4=T, LLFIOUT=F, LLFIREAD=F /
&NAM_GRID2_SPA  /
&NAM_LUNIT2_SPA  CINIFILE = "ICART.1.SEG01.003",
                 CINIFILEPGD="ICARTT1008_PGD_15km.neste1",
                 YDOMAIN  = "ICARTT1008_PGD_2km5.neste1",
                 YSPANBR = '02' /
&NAM_SPAWN_SURF LSPAWN_SURF=F /
