&NAM_CONFIO  LCDF4=T, LLFIOUT=T, LLFIREAD=F /
&NAM_LUNIT2_SPA  CINIFILE = "16JAN_06_MNH",
                 CINIFILEPGD="16JAN98_36km.neste1",
                 YDOMAIN  = "16JAN98_9km.neste1",
                 YSPANBR = '04' /

