&NAM_CONFIO  LCDF4=T, LLFIOUT=F, LLFIREAD=F /
&NAM_FILE_NAMES HATMFILE ='ICART.1.SEG01.003.spa02' , HATMFILETYPE='MESONH',
                HPGDFILE ='ICARTT1008_PGD_2km5.neste1' , CINIFILE='ICART.1.SEG01.003.2' /
&NAM_VER_GRID /
&NAM_PREP_SURF_ATM CFILE='ICART.1.SEG01.003', CFILEPGD='ICARTT1008_PGD_15km.neste1', CFILETYPE='MESONH'/
