&nam_grid ntime_steps    = 6,
           time_step      = 60,
           grid_file_name = 'grid_toy_model.nc' /

&nam_fct_send type_send='sinus',
              value_send=0.011 /

&nam_recv_fields nrecv_fields=1,
                 name_recv_fields(1)='VARRCV01' /

&nam_send_fields nsend_fields=1, 
                 name_send_fields(1)='VARSIN01' / 
