&NAM_CONFIO  LCDF4=T, LLFIOUT=T, LLFIREAD=F /
&NAM_CONFZ
   !NZ_VERB=5 , NZ_PROC=0 , NB_PROCIO_R=8 , NB_PROCIO_W=8
/

&NAM_LUNIT2_SPA  CINIFILE = "16JAN_06_MNH3",
                 CINIFILEPGD="16JAN98_4500.neste1",
                 YDOMAIN  = "16JAN98_2250.neste1",
                 YSPANBR = '11' /

